###############################################################################################
#
# CIF file generated by modified CIFWriter class 
# in pymatgen (v2025.03.10) https://pymatgen.org/
#
###############################################################################################
data_MACE-OFF23(L)_10e6e6ca74219e2
_symmetry_space_group_name_H-M   C2/c
_cell_length_a   24.24030972
_cell_length_b   10.60811306
_cell_length_c   6.21614002
_cell_angle_alpha   90.00000000
_cell_angle_beta   62.72803263
_cell_angle_gamma   90.00000000
_symmetry_Int_Tables_number   15
_chemical_formula_moiety   'C3 H2 N4 O4'
_chemical_formula_sum   'H16 C24 N32 O32'
_cell_volume   1420.76231620
_cell_formula_units_Z   8
loop_
 _symmetry_equiv_pos_site_id
 _symmetry_equiv_pos_as_xyz
  1  'x, y, z'
  2  '-x, -y, -z'
  3  '-x, y, -z+1/2'
  4  'x, -y, z+1/2'
  5  'x+1/2, y+1/2, z'
  6  '-x+1/2, -y+1/2, -z'
  7  '-x+1/2, y+1/2, -z+1/2'
  8  'x+1/2, -y+1/2, z+1/2'
loop_
 _atom_site_type_symbol
 _atom_site_label
 _atom_site_symmetry_multiplicity
 _atom_site_fract_x
 _atom_site_fract_y
 _atom_site_fract_z
 _atom_site_occupancy
  H  H0  8  0.23099703  0.60487470  0.30428116  1
  H  H1  8  0.24588986  0.33914005  0.22992793  1
  C  C2  8  0.14388315  0.65546547  0.32254422  1
  C  C3  8  0.15890155  0.15162897  0.79336723  1
  C  C4  8  0.21185994  0.79768337  0.28710315  1
  N  N5  8  0.11663899  0.75940409  0.31580291  1
  N  N6  8  0.11976022  0.47097617  0.83731669  1
  N  N7  8  0.14735673  0.01996020  0.77678719  1
  N  N8  8  0.20124469  0.32777311  0.80563244  1
  O  O9  8  0.06833689  0.51516125  0.36203449  1
  O  O10  8  0.09970202  1.01245896  0.28045422  1
  O  O11  8  0.15622969  0.55612959  0.81945765  1
  O  O12  8  0.18892888  -0.05354313  0.75734047  1
