###############################################################################################
#
# CIF file generated by modified CIFWriter class 
# in pymatgen (v2025.03.10) https://pymatgen.org/
#
###############################################################################################
data_MACE-OFF23(L)_133b5a934797830
_symmetry_space_group_name_H-M   P-4c2
_cell_length_a   9.46514897
_cell_length_b   9.46514897
_cell_length_c   17.91658632
_cell_angle_alpha   90.00000000
_cell_angle_beta   90.00000000
_cell_angle_gamma   90.00000000
_symmetry_Int_Tables_number   116
_chemical_formula_moiety   'C3 H2 N4 O4'
_chemical_formula_sum   'H16 C24 N32 O32'
_cell_volume   1605.12985865
_cell_formula_units_Z   8
loop_
 _symmetry_equiv_pos_site_id
 _symmetry_equiv_pos_as_xyz
  1  'x, y, z'
  2  'y, -x, -z'
  3  '-x, -y, z'
  4  '-y, x, -z'
  5  '-x, y, z+1/2'
  6  '-y, -x, -z+1/2'
  7  'x, -y, z+1/2'
  8  'y, x, -z+1/2'
loop_
 _atom_site_type_symbol
 _atom_site_label
 _atom_site_symmetry_multiplicity
 _atom_site_fract_x
 _atom_site_fract_y
 _atom_site_fract_z
 _atom_site_occupancy
  H  H0  8  0.05906061  0.65349648  0.50633298  1
  H  H1  8  0.18674190  0.39074235  0.13063532  1
  C  C2  8  0.20790289  0.22744150  0.51795250  1
  C  C3  8  0.22253904  0.32223069  0.08682471  1
  C  C4  8  0.23994379  0.34067789  0.41995014  1
  N  N5  8  0.14887618  0.17454450  0.58734529  1
  N  N6  8  0.15015294  0.29920408  0.02269385  1
  N  N7  8  0.16840322  0.34415810  0.48580106  1
  N  N8  8  0.22132112  0.44791844  0.36330291  1
  O  O9  8  0.04936428  0.16365136  -0.09927853  1
  O  O10  8  0.08762662  0.25845983  0.62667720  1
  O  O11  8  0.14968424  0.44965991  0.87892283  1
  O  O12  8  0.27924544  0.42742790  0.30414334  1
