###############################################################################################
#
# CIF file generated by modified CIFWriter class 
# in pymatgen (v2025.03.10) https://pymatgen.org/
#
###############################################################################################
data_MACE-OFF23(L)_13c9ca1ac6849e7
_symmetry_space_group_name_H-M   P4_32_12
_cell_length_a   12.04231976
_cell_length_b   12.04231976
_cell_length_c   8.95866508
_cell_angle_alpha   90.00000000
_cell_angle_beta   90.00000000
_cell_angle_gamma   90.00000000
_symmetry_Int_Tables_number   96
_chemical_formula_moiety   'C3 H2 N4 O4'
_chemical_formula_sum   'H16 C24 N32 O32'
_cell_volume   1299.16290107
_cell_formula_units_Z   8
loop_
 _symmetry_equiv_pos_site_id
 _symmetry_equiv_pos_as_xyz
  1  'x, y, z'
  2  '-y+1/2, x+1/2, z+3/4'
  3  '-x, -y, z+1/2'
  4  'y+1/2, -x+1/2, z+1/4'
  5  'x+1/2, -y+1/2, -z+1/4'
  6  '-y, -x, -z+1/2'
  7  '-x+1/2, y+1/2, -z+3/4'
  8  'y, x, -z'
loop_
 _atom_site_type_symbol
 _atom_site_label
 _atom_site_symmetry_multiplicity
 _atom_site_fract_x
 _atom_site_fract_y
 _atom_site_fract_z
 _atom_site_occupancy
  H  H0  8  0.07840682  0.65914061  0.46948068  1
  H  H1  8  0.24585709  0.25143304  0.37954328  1
  C  C2  8  0.03940097  0.81692235  0.56015321  1
  C  C3  8  0.10040605  0.82264205  1.02124277  1
  C  C4  8  0.18948706  0.79233755  0.43121443  1
  N  N5  8  -0.06835104  0.78838593  0.62268931  1
  N  N6  8  0.00950649  0.74786095  1.05238479  1
  N  N7  8  0.08432683  0.91467296  0.56096331  1
  N  N8  8  0.09890484  0.73951167  0.48545478  1
  O  O9  8  -0.12560788  0.86245231  0.67133521  1
  O  O10  8  -0.09249305  0.69023564  0.61830764  1
  O  O11  8  -0.07512160  0.75986093  0.98157625  1
  O  O12  8  0.02332887  0.67739178  1.14849200  1
