###############################################################################################
#
# CIF file generated by modified CIFWriter class 
# in pymatgen (v2025.03.10) https://pymatgen.org/
#
###############################################################################################
data_MACE-OFF23(L)_1ada7d12527b89
_symmetry_space_group_name_H-M   P4_222
_cell_length_a   14.63266365
_cell_length_b   14.63266365
_cell_length_c   6.75883851
_cell_angle_alpha   90.00000000
_cell_angle_beta   90.00000000
_cell_angle_gamma   90.00000000
_symmetry_Int_Tables_number   93
_chemical_formula_moiety   'C3 H2 N4 O4'
_chemical_formula_sum   'H16 C24 N32 O32'
_cell_volume   1447.16766278
_cell_formula_units_Z   8
loop_
 _symmetry_equiv_pos_site_id
 _symmetry_equiv_pos_as_xyz
  1  'x, y, z'
  2  '-y, x, z+1/2'
  3  '-x, -y, z'
  4  'y, -x, z+1/2'
  5  'x, -y, -z'
  6  '-y, -x, -z+1/2'
  7  '-x, y, -z'
  8  'y, x, -z+1/2'
loop_
 _atom_site_type_symbol
 _atom_site_label
 _atom_site_symmetry_multiplicity
 _atom_site_fract_x
 _atom_site_fract_y
 _atom_site_fract_z
 _atom_site_occupancy
  H  H0  8  0.00420565  0.61357631  0.80975168  1
  H  H1  8  0.00939478  0.78009172  0.69035892  1
  C  C2  8  0.06136212  0.35362005  0.26081933  1
  C  C3  8  0.14306552  0.25092589  0.41237037  1
  C  C4  8  0.14708918  0.38428473  0.30973718  1
  N  N5  8  0.05992749  0.26608147  0.32693184  1
  N  N6  8  0.16137215  0.16416713  0.50694299  1
  N  N7  8  0.18326261  0.47424037  0.26700321  1
  N  N8  8  0.19774522  0.32027036  0.40337341  1
  O  O9  8  0.09697495  0.11105079  0.51435867  1
  O  O10  8  0.12670274  0.46793741  0.78169798  1
  O  O11  8  0.14938298  0.23671233  -0.07408038  1
  O  O12  8  0.26387522  0.48661884  0.28111705  1
