###############################################################################################
#
# CIF file generated by modified CIFWriter class 
# in pymatgen (v2025.03.10) https://pymatgen.org/
#
###############################################################################################
data_MACE-OFF23(L)_1ca7ad0f0e267a4
_symmetry_space_group_name_H-M   P4_32_12
_cell_length_a   7.68853411
_cell_length_b   7.68853411
_cell_length_c   20.70207120
_cell_angle_alpha   90.00000000
_cell_angle_beta   90.00000000
_cell_angle_gamma   90.00000000
_symmetry_Int_Tables_number   96
_chemical_formula_moiety   'C3 H2 N4 O4'
_chemical_formula_sum   'H16 C24 N32 O32'
_cell_volume   1223.77306055
_cell_formula_units_Z   8
loop_
 _symmetry_equiv_pos_site_id
 _symmetry_equiv_pos_as_xyz
  1  'x, y, z'
  2  '-y+1/2, x+1/2, z+3/4'
  3  '-x, -y, z+1/2'
  4  'y+1/2, -x+1/2, z+1/4'
  5  'x+1/2, -y+1/2, -z+1/4'
  6  '-y, -x, -z+1/2'
  7  '-x+1/2, y+1/2, -z+3/4'
  8  'y, x, -z'
loop_
 _atom_site_type_symbol
 _atom_site_label
 _atom_site_symmetry_multiplicity
 _atom_site_fract_x
 _atom_site_fract_y
 _atom_site_fract_z
 _atom_site_occupancy
  H  H0  8  -0.05627836  0.38860042  0.25555145  1
  H  H1  8  0.04939614  0.69755573  0.25173452  1
  C  C2  8  -0.04106155  0.39252214  0.15253973  1
  C  C3  8  0.03036952  0.61670418  0.20998159  1
  C  C4  8  0.05318818  0.64440555  0.14491093  1
  N  N5  8  -0.11325358  0.22408227  0.13762994  1
  N  N6  8  -0.02964351  0.45229570  0.21375547  1
  N  N7  8  0.00422326  0.49179488  0.35924590  1
  N  N8  8  0.11006973  0.80204678  0.11383054  1
  O  O9  8  -0.12704351  0.18497347  0.08123913  1
  O  O10  8  0.07420636  0.85609758  0.35149037  1
  O  O11  8  0.12222924  0.80228119  0.05552255  1
  O  O12  8  0.13499216  -0.15765454  0.81667481  1
