###############################################################################################
#
# CIF file generated by modified CIFWriter class 
# in pymatgen (v2025.03.10) https://pymatgen.org/
#
###############################################################################################
data_MACE-OFF23(L)_1d20349646922d6
_symmetry_space_group_name_H-M   P4_12_12
_cell_length_a   6.33251520
_cell_length_b   6.33251520
_cell_length_c   33.77809258
_cell_angle_alpha   90.00000000
_cell_angle_beta   90.00000000
_cell_angle_gamma   90.00000000
_symmetry_Int_Tables_number   92
_chemical_formula_moiety   'C3 H2 N4 O4'
_chemical_formula_sum   'H16 C24 N32 O32'
_cell_volume   1354.52680539
_cell_formula_units_Z   8
loop_
 _symmetry_equiv_pos_site_id
 _symmetry_equiv_pos_as_xyz
  1  'x, y, z'
  2  '-y+1/2, x+1/2, z+1/4'
  3  '-x, -y, z+1/2'
  4  'y+1/2, -x+1/2, z+3/4'
  5  'x+1/2, -y+1/2, -z+3/4'
  6  '-y, -x, -z+1/2'
  7  '-x+1/2, y+1/2, -z+1/4'
  8  'y, x, -z'
loop_
 _atom_site_type_symbol
 _atom_site_label
 _atom_site_symmetry_multiplicity
 _atom_site_fract_x
 _atom_site_fract_y
 _atom_site_fract_z
 _atom_site_occupancy
  H  H0  8  0.09204698  0.37388825  0.58944309  1
  H  H1  8  0.20807182  0.73352061  0.72027571  1
  C  C2  8  -0.07477099  0.19659312  0.44372655  1
  C  C3  8  0.04792423  0.05369077  0.60539726  1
  C  C4  8  0.13860420  0.21540438  0.44835072  1
  N  N5  8  -0.06228378  0.08624991  0.64248260  1
  N  N6  8  0.09291420  -0.12825632  0.58985371  1
  N  N7  8  0.11711869  0.21989025  0.58379855  1
  N  N8  8  0.22327517  0.26843347  0.72075920  1
  O  O9  8  -0.07875814  0.26997945  0.65337123  1
  O  O10  8  -0.06559918  -0.12695887  0.33993564  1
  O  O11  8  0.08408466  0.24953035  0.28768981  1
  O  O12  8  0.13546786  0.33235734  0.75035183  1
