###############################################################################################
#
# CIF file generated by modified CIFWriter class 
# in pymatgen (v2025.03.10) https://pymatgen.org/
#
###############################################################################################
data_MACE-OFF23(L)_1f151348f4ba71c
_symmetry_space_group_name_H-M   Aem2
_cell_length_a   5.88073093
_cell_length_b   35.24034063
_cell_length_c   9.46138880
_cell_angle_alpha   90.00000000
_cell_angle_beta   90.00000000
_cell_angle_gamma   90.00000000
_symmetry_Int_Tables_number   39
_chemical_formula_moiety   'C3 H2 N4 O4'
_chemical_formula_sum   'H16 C24 N32 O32'
_cell_volume   1960.76838486
_cell_formula_units_Z   8
loop_
 _symmetry_equiv_pos_site_id
 _symmetry_equiv_pos_as_xyz
  1  'x, y, z'
  2  '-x, -y, z'
  3  '-x, y+1/2, z'
  4  'x, -y+1/2, z'
  5  'x, y+1/2, z+1/2'
  6  '-x, -y+1/2, z+1/2'
  7  '-x, y, z+1/2'
  8  'x, -y, z+1/2'
loop_
 _atom_site_type_symbol
 _atom_site_label
 _atom_site_symmetry_multiplicity
 _atom_site_fract_x
 _atom_site_fract_y
 _atom_site_fract_z
 _atom_site_occupancy
  H  H0  8  -0.06318751  0.02982864  0.32863487  1
  H  H1  8  0.28816739  0.01161289  0.47975296  1
  C  C2  8  0.07186934  0.04831587  0.36038816  1
  C  C3  8  0.10467584  0.08620454  0.33632398  1
  C  C4  8  0.38585930  0.06908206  0.45064827  1
  N  N5  8  -0.05655923  0.11023727  0.26268408  1
  N  N6  8  0.25727996  0.03727451  0.43534608  1
  N  N7  8  0.30011154  0.09909177  0.39211945  1
  N  N8  8  0.40167566  0.06736636  1.02671537  1
  O  O9  8  -0.22241190  0.09327067  0.21580418  1
  O  O10  8  -0.02032101  0.35650674  0.25380168  1
  O  O11  8  0.29128632  0.09556890  1.04190134  1
  O  O12  8  0.34693101  0.03567660  1.07272466  1
