###############################################################################################
#
# CIF file generated by modified CIFWriter class 
# in pymatgen (v2025.03.10) https://pymatgen.org/
#
###############################################################################################
data_MACE-OFF23(L)_214ce4633dd3c1
_symmetry_space_group_name_H-M   Pbca
_cell_length_a   19.27533838
_cell_length_b   5.75771129
_cell_length_c   10.59223686
_cell_angle_alpha   90.00000000
_cell_angle_beta   90.00000000
_cell_angle_gamma   90.00000000
_symmetry_Int_Tables_number   61
_chemical_formula_moiety   'C3 H2 N4 O4'
_chemical_formula_sum   'H16 C24 N32 O32'
_cell_volume   1175.54586550
_cell_formula_units_Z   8
loop_
 _symmetry_equiv_pos_site_id
 _symmetry_equiv_pos_as_xyz
  1  'x, y, z'
  2  '-x, -y, -z'
  3  'x+1/2, -y+1/2, -z'
  4  '-x+1/2, y+1/2, z'
  5  '-x, y+1/2, -z+1/2'
  6  'x, -y+1/2, z+1/2'
  7  '-x+1/2, -y, z+1/2'
  8  'x+1/2, y, -z+1/2'
loop_
 _atom_site_type_symbol
 _atom_site_label
 _atom_site_symmetry_multiplicity
 _atom_site_fract_x
 _atom_site_fract_y
 _atom_site_fract_z
 _atom_site_occupancy
  H  H0  8  0.05385406  0.74926866  0.59673125  1
  H  H1  8  0.18413192  0.74909727  0.57177740  1
  C  C2  8  0.05787511  0.74981944  0.88474462  1
  C  C3  8  0.08077334  0.74953071  0.50780448  1
  C  C4  8  0.16520832  0.74991033  0.37313572  1
  N  N5  8  -0.01306072  0.74944259  0.84472896  1
  N  N6  8  0.11065964  0.74959947  0.80112861  1
  N  N7  8  0.15018076  0.74942312  0.49836816  1
  N  N8  8  0.23565663  0.74997287  0.82918961  1
  O  O9  8  -0.05720275  0.74915260  0.92640206  1
  O  O10  8  -0.02505693  0.74944021  0.73151620  1
  O  O11  8  0.21896476  0.24955412  0.91003002  1
  O  O12  8  0.24593360  0.74962993  0.21660955  1
