###############################################################################################
#
# CIF file generated by modified CIFWriter class 
# in pymatgen (v2025.03.10) https://pymatgen.org/
#
###############################################################################################
data_MACE-OFF23(L)_2170beb630d1fc
_symmetry_space_group_name_H-M   I4
_cell_length_a   12.39158145
_cell_length_b   12.39158145
_cell_length_c   11.29243747
_cell_angle_alpha   90.00000000
_cell_angle_beta   90.00000000
_cell_angle_gamma   90.00000000
_symmetry_Int_Tables_number   79
_chemical_formula_moiety   'C3 H2 N4 O4'
_chemical_formula_sum   'H16 C24 N32 O32'
_cell_volume   1733.96835213
_cell_formula_units_Z   8
loop_
 _symmetry_equiv_pos_site_id
 _symmetry_equiv_pos_as_xyz
  1  'x, y, z'
  2  '-y, x, z'
  3  '-x, -y, z'
  4  'y, -x, z'
  5  'x+1/2, y+1/2, z+1/2'
  6  '-y+1/2, x+1/2, z+1/2'
  7  '-x+1/2, -y+1/2, z+1/2'
  8  'y+1/2, -x+1/2, z+1/2'
loop_
 _atom_site_type_symbol
 _atom_site_label
 _atom_site_symmetry_multiplicity
 _atom_site_fract_x
 _atom_site_fract_y
 _atom_site_fract_z
 _atom_site_occupancy
  H  H0  8  -0.05445714  0.68551752  0.76966340  1
  H  H1  8  -0.01197830  0.71066961  0.98970032  1
  C  C2  8  0.02387383  0.67682565  0.80976715  1
  C  C3  8  0.12284561  0.64960296  0.76352552  1
  C  C4  8  0.14913809  0.66927122  0.94315280  1
  N  N5  8  0.04312321  0.69035527  0.92637683  1
  N  N6  8  0.12609625  0.35658843  0.14118270  1
  N  N7  8  0.14468495  0.29892504  0.34703937  1
  N  N8  8  0.16684063  0.30645184  0.56195347  1
  O  O9  8  0.06621969  0.62407422  0.57500789  1
  O  O10  8  0.10828062  0.26398833  0.10998706  1
  O  O11  8  0.12924072  0.67900081  1.14254768  1
  O  O12  8  0.15162648  0.21092965  0.57359929  1
