###############################################################################################
#
# CIF file generated by modified CIFWriter class 
# in pymatgen (v2025.03.10) https://pymatgen.org/
#
###############################################################################################
data_MACE-OFF23(L)_24578755f86f15f
_symmetry_space_group_name_H-M   P4nc
_cell_length_a   13.35689263
_cell_length_b   13.35689263
_cell_length_c   7.65383840
_cell_angle_alpha   90.00000000
_cell_angle_beta   90.00000000
_cell_angle_gamma   90.00000000
_symmetry_Int_Tables_number   104
_chemical_formula_moiety   'C3 H2 N4 O4'
_chemical_formula_sum   'H16 C24 N32 O32'
_cell_volume   1365.49513838
_cell_formula_units_Z   8
loop_
 _symmetry_equiv_pos_site_id
 _symmetry_equiv_pos_as_xyz
  1  'x, y, z'
  2  '-y, x, z'
  3  '-x, -y, z'
  4  'y, -x, z'
  5  '-x+1/2, y+1/2, z+1/2'
  6  'y+1/2, x+1/2, z+1/2'
  7  'x+1/2, -y+1/2, z+1/2'
  8  '-y+1/2, -x+1/2, z+1/2'
loop_
 _atom_site_type_symbol
 _atom_site_label
 _atom_site_symmetry_multiplicity
 _atom_site_fract_x
 _atom_site_fract_y
 _atom_site_fract_z
 _atom_site_occupancy
  H  H0  8  -0.15420239  0.69116672  0.67732054  1
  H  H1  8  -0.07546953  0.64047670  0.96722660  1
  C  C2  8  -0.04173786  0.68812707  0.87170243  1
  C  C3  8  -0.01887339  0.76912049  0.63057874  1
  C  C4  8  0.04644122  0.73990140  0.87082672  1
  N  N5  8  -0.08349040  0.70789923  0.71435505  1
  N  N6  8  -0.03557962  0.79364381  0.44807595  1
  N  N7  8  0.06104810  0.79096910  0.71963945  1
  N  N8  8  0.11830306  0.73802552  1.01233487  1
  O  O9  8  -0.10738727  0.75205550  0.38030113  1
  O  O10  8  0.02205005  0.84928184  0.37751961  1
  O  O11  8  0.09948402  0.68109446  1.13268777  1
  O  O12  8  0.19126157  0.79111607  1.00267550  1
