###############################################################################################
#
# CIF file generated by modified CIFWriter class 
# in pymatgen (v2025.03.10) https://pymatgen.org/
#
###############################################################################################
data_MACE-OFF23(L)_25189b4521086e8
_symmetry_space_group_name_H-M   Iba2
_cell_length_a   12.93237974
_cell_length_b   11.24767827
_cell_length_c   9.49343197
_cell_angle_alpha   90.00000000
_cell_angle_beta   90.00000000
_cell_angle_gamma   90.00000000
_symmetry_Int_Tables_number   45
_chemical_formula_moiety   'C3 H2 N4 O4'
_chemical_formula_sum   'H16 C24 N32 O32'
_cell_volume   1380.90746240
_cell_formula_units_Z   8
loop_
 _symmetry_equiv_pos_site_id
 _symmetry_equiv_pos_as_xyz
  1  'x, y, z'
  2  '-x, -y, z'
  3  'x, -y, z+1/2'
  4  '-x, y, z+1/2'
  5  'x+1/2, y+1/2, z+1/2'
  6  '-x+1/2, -y+1/2, z+1/2'
  7  'x+1/2, -y+1/2, z'
  8  '-x+1/2, y+1/2, z'
loop_
 _atom_site_type_symbol
 _atom_site_label
 _atom_site_symmetry_multiplicity
 _atom_site_fract_x
 _atom_site_fract_y
 _atom_site_fract_z
 _atom_site_occupancy
  H  H0  8  0.04324691  0.62051739  -0.01105186  1
  H  H1  8  0.11817447  0.20105214  0.61827649  1
  C  C2  8  0.16213203  0.27348136  0.57579047  1
  C  C3  8  0.19856872  0.43863819  0.47000222  1
  C  C4  8  0.23386954  0.20331042  0.07235298  1
  N  N5  8  0.11930593  0.36728515  0.50926629  1
  N  N6  8  0.15399344  0.72312391  0.63170581  1
  N  N7  8  0.18157043  0.45094939  -0.10422271  1
  N  N8  8  0.21105327  0.10040434  0.00620898  1
  O  O9  8  0.06508525  0.24337547  0.12530177  1
  O  O10  8  0.09201659  0.41880435  -0.11868025  1
  O  O11  8  0.18085433  0.37139400  0.18385129  1
  O  O12  8  0.24343868  -0.10195313  -0.14599607  1
