###############################################################################################
#
# CIF file generated by modified CIFWriter class 
# in pymatgen (v2025.03.10) https://pymatgen.org/
#
###############################################################################################
data_MACE-OFF23(L)_280f8f4508c3038
_symmetry_space_group_name_H-M   Pbca
_cell_length_a   17.74991818
_cell_length_b   11.27354568
_cell_length_c   5.78499326
_cell_angle_alpha   90.00000000
_cell_angle_beta   90.00000000
_cell_angle_gamma   90.00000000
_symmetry_Int_Tables_number   61
_chemical_formula_moiety   'C3 H2 N4 O4'
_chemical_formula_sum   'H16 C24 N32 O32'
_cell_volume   1157.60326260
_cell_formula_units_Z   8
loop_
 _symmetry_equiv_pos_site_id
 _symmetry_equiv_pos_as_xyz
  1  'x, y, z'
  2  '-x, -y, -z'
  3  '-x, y+1/2, -z+1/2'
  4  'x, -y+1/2, z+1/2'
  5  '-x+1/2, -y, z+1/2'
  6  'x+1/2, y, -z+1/2'
  7  'x+1/2, -y+1/2, -z'
  8  '-x+1/2, y+1/2, z'
loop_
 _atom_site_type_symbol
 _atom_site_label
 _atom_site_symmetry_multiplicity
 _atom_site_fract_x
 _atom_site_fract_y
 _atom_site_fract_z
 _atom_site_occupancy
  H  H0  8  0.10319276  0.47242602  0.03643244  1
  H  H1  8  0.24532419  0.45057879  0.04029526  1
  C  C2  8  0.12335056  0.65873073  0.04293378  1
  C  C3  8  0.21574530  0.53374483  0.04121402  1
  C  C4  8  0.23994691  0.64982393  0.04375208  1
  N  N5  8  0.04627896  0.69855902  0.04325591  1
  N  N6  8  0.14004839  0.54141438  0.04055381  1
  N  N7  8  0.18198465  0.72773448  0.04488809  1
  N  N8  8  0.18358190  0.18794618  0.04576692  1
  O  O9  8  -0.00183069  0.62204811  0.04172078  1
  O  O10  8  0.03537361  0.69517014  0.54484150  1
  O  O11  8  0.13509779  0.11257047  0.04511337  1
  O  O12  8  0.17156233  0.20502456  0.54758272  1
