###############################################################################################
#
# CIF file generated by modified CIFWriter class 
# in pymatgen (v2025.03.10) https://pymatgen.org/
#
###############################################################################################
data_MACE-OFF23(L)_28494e99eddd8bc
_symmetry_space_group_name_H-M   P-4n2
_cell_length_a   8.84204503
_cell_length_b   8.84204503
_cell_length_c   25.51903070
_cell_angle_alpha   90.00000000
_cell_angle_beta   90.00000000
_cell_angle_gamma   90.00000000
_symmetry_Int_Tables_number   118
_chemical_formula_moiety   'C3 H2 N4 O4'
_chemical_formula_sum   'H16 C24 N32 O32'
_cell_volume   1995.12274139
_cell_formula_units_Z   8
loop_
 _symmetry_equiv_pos_site_id
 _symmetry_equiv_pos_as_xyz
  1  'x, y, z'
  2  'y, -x, -z'
  3  '-x, -y, z'
  4  '-y, x, -z'
  5  '-x+1/2, y+1/2, z+1/2'
  6  '-y+1/2, -x+1/2, -z+1/2'
  7  'x+1/2, -y+1/2, z+1/2'
  8  'y+1/2, x+1/2, -z+1/2'
loop_
 _atom_site_type_symbol
 _atom_site_label
 _atom_site_symmetry_multiplicity
 _atom_site_fract_x
 _atom_site_fract_y
 _atom_site_fract_z
 _atom_site_occupancy
  H  H0  8  -0.16445217  0.29336442  0.47025935  1
  H  H1  8  0.09251096  0.35931892  0.50892749  1
  C  C2  8  -0.04063561  0.20818003  0.40442085  1
  C  C3  8  0.07464563  0.30748792  0.47128155  1
  C  C4  8  0.17236097  0.26291576  0.43263588  1
  N  N5  8  -0.06419724  0.27076511  0.45208900  1
  N  N6  8  0.10052365  0.20166092  0.39080702  1
  N  N7  8  0.14754242  1.16607692  0.62637380  1
  N  N8  8  0.16468681  0.77769478  0.93429015  1
  O  O9  8  0.09614703  0.79141861  0.89418731  1
  O  O10  8  0.10748296  0.77601018  0.97840217  1
  O  O11  8  0.12006205  1.28063609  0.60138096  1
  O  O12  8  0.12821882  1.14597869  0.67223772  1
