###############################################################################################
#
# CIF file generated by modified CIFWriter class 
# in pymatgen (v2025.03.10) https://pymatgen.org/
#
###############################################################################################
data_MACE-OFF23(L)_2a2921a6276ea8
_symmetry_space_group_name_H-M   Pban
_cell_length_a   6.83628715
_cell_length_b   12.74345116
_cell_length_c   18.17781185
_cell_angle_alpha   90.00000000
_cell_angle_beta   90.00000000
_cell_angle_gamma   90.00000000
_symmetry_Int_Tables_number   50
_chemical_formula_moiety   'C3 H2 N4 O4'
_chemical_formula_sum   'H16 C24 N32 O32'
_cell_volume   1583.61263849
_cell_formula_units_Z   8
loop_
 _symmetry_equiv_pos_site_id
 _symmetry_equiv_pos_as_xyz
  1  'x, y, z'
  2  '-x, -y, z'
  3  'x, -y, -z'
  4  '-x, y, -z'
  5  '-x+1/2, -y+1/2, -z'
  6  'x+1/2, y+1/2, -z'
  7  '-x+1/2, y+1/2, z'
  8  'x+1/2, -y+1/2, z'
loop_
 _atom_site_type_symbol
 _atom_site_label
 _atom_site_symmetry_multiplicity
 _atom_site_fract_x
 _atom_site_fract_y
 _atom_site_fract_z
 _atom_site_occupancy
  H  H0  8  0.17611055  0.60793745  0.90035262  1
  H  H1  8  0.24409294  0.47201038  0.22491543  1
  C  C2  8  0.19370954  0.18283859  0.73938230  1
  C  C3  8  0.21779347  0.34878265  0.14774482  1
  C  C4  8  0.24897296  0.24446140  0.16065630  1
  N  N5  8  0.14212587  0.15958640  0.66345257  1
  N  N6  8  0.19370087  0.27558080  0.76897336  1
  N  N7  8  0.22226350  0.16098466  0.10867309  1
  N  N8  8  0.24419744  0.10529049  0.78657952  1
  O  O9  8  0.06644042  0.22872729  0.62824330  1
  O  O10  8  0.14374746  0.18238277  0.05085320  1
  O  O11  8  0.17964029  0.07126648  0.64300888  1
  O  O12  8  0.22225825  0.42707724  0.87410603  1
