###############################################################################################
#
# CIF file generated by modified CIFWriter class 
# in pymatgen (v2025.03.10) https://pymatgen.org/
#
###############################################################################################
data_MACE-OFF23(L)_2a790e11e4248c0
_symmetry_space_group_name_H-M   P-42_1c
_cell_length_a   7.79139153
_cell_length_b   7.79139153
_cell_length_c   22.09596400
_cell_angle_alpha   90.00000000
_cell_angle_beta   90.00000000
_cell_angle_gamma   90.00000000
_symmetry_Int_Tables_number   114
_chemical_formula_moiety   'C3 H2 N4 O4'
_chemical_formula_sum   'H16 C24 N32 O32'
_cell_volume   1341.35277147
_cell_formula_units_Z   8
loop_
 _symmetry_equiv_pos_site_id
 _symmetry_equiv_pos_as_xyz
  1  'x, y, z'
  2  'y, -x, -z'
  3  '-x, -y, z'
  4  '-y, x, -z'
  5  'x+1/2, -y+1/2, -z+1/2'
  6  'y+1/2, x+1/2, z+1/2'
  7  '-x+1/2, y+1/2, -z+1/2'
  8  '-y+1/2, -x+1/2, z+1/2'
loop_
 _atom_site_type_symbol
 _atom_site_label
 _atom_site_symmetry_multiplicity
 _atom_site_fract_x
 _atom_site_fract_y
 _atom_site_fract_z
 _atom_site_occupancy
  H  H0  8  0.11836523  0.23709694  0.11348744  1
  H  H1  8  0.14167154  0.66465043  0.46326663  1
  C  C2  8  -0.02078709  0.75996868  0.38626845  1
  C  C3  8  0.12322797  0.71448514  0.41842232  1
  C  C4  8  0.18134996  0.81079171  0.32836758  1
  N  N5  8  -0.19475909  0.75483367  0.40797030  1
  N  N6  8  0.01614730  0.81915760  0.33015713  1
  N  N7  8  0.13726779  0.29477914  0.72132425  1
  N  N8  8  0.24621213  0.24895157  0.12019260  1
  O  O9  8  0.05502683  0.33206413  0.21251957  1
  O  O10  8  0.07053682  0.23251091  0.76539700  1
  O  O11  8  0.17296326  -0.30598043  0.62074976  1
  O  O12  8  0.17746041  0.27958855  0.95554582  1
