###############################################################################################
#
# CIF file generated by modified CIFWriter class 
# in pymatgen (v2025.03.10) https://pymatgen.org/
#
###############################################################################################
data_MACE-OFF23(L)_2abab8669f2feb8
_symmetry_space_group_name_H-M   P-42_1c
_cell_length_a   14.81663239
_cell_length_b   14.81663239
_cell_length_c   7.01331118
_cell_angle_alpha   90.00000000
_cell_angle_beta   90.00000000
_cell_angle_gamma   90.00000000
_symmetry_Int_Tables_number   114
_chemical_formula_moiety   'C3 H2 N4 O4'
_chemical_formula_sum   'H16 C24 N32 O32'
_cell_volume   1539.65040464
_cell_formula_units_Z   8
loop_
 _symmetry_equiv_pos_site_id
 _symmetry_equiv_pos_as_xyz
  1  'x, y, z'
  2  'y, -x, -z'
  3  '-x, -y, z'
  4  '-y, x, -z'
  5  'x+1/2, -y+1/2, -z+1/2'
  6  'y+1/2, x+1/2, z+1/2'
  7  '-x+1/2, y+1/2, -z+1/2'
  8  '-y+1/2, -x+1/2, z+1/2'
loop_
 _atom_site_type_symbol
 _atom_site_label
 _atom_site_symmetry_multiplicity
 _atom_site_fract_x
 _atom_site_fract_y
 _atom_site_fract_z
 _atom_site_occupancy
  H  H0  8  -0.02678509  1.21925848  1.15311027  1
  H  H1  8  0.06477818  1.17328199  1.44746904  1
  C  C2  8  -0.16007916  0.17501513  -0.25742439  1
  C  C3  8  0.04301606  1.19985870  1.15215033  1
  C  C4  8  0.10695817  1.19733862  1.01196100  1
  N  N5  8  -0.17297173  0.18941972  -0.07696131  1
  N  N6  8  -0.12768678  0.24336890  -0.39095379  1
  N  N7  8  0.08916850  1.17546944  1.31197011  1
  N  N8  8  0.09520078  1.21869638  0.81205029  1
  O  O9  8  -0.11940037  0.31877032  -0.33252943  1
  O  O10  8  -0.11037998  0.21632576  -0.55111445  1
  O  O11  8  0.03591878  1.17807426  0.72538273  1
  O  O12  8  0.14478323  1.27392166  0.74155577  1
