###############################################################################################
#
# CIF file generated by modified CIFWriter class 
# in pymatgen (v2025.03.10) https://pymatgen.org/
#
###############################################################################################
data_MACE-OFF23(L)_2d7a4408e4d8d3f
_symmetry_space_group_name_H-M   C2/c
_cell_length_a   16.80890947
_cell_length_b   5.73686482
_cell_length_c   14.42369698
_cell_angle_alpha   90.00000000
_cell_angle_beta   88.93393139
_cell_angle_gamma   90.00000000
_symmetry_Int_Tables_number   15
_chemical_formula_moiety   'C3 H2 N4 O4'
_chemical_formula_sum   'H16 C24 N32 O32'
_cell_volume   1390.64271371
_cell_formula_units_Z   8
loop_
 _symmetry_equiv_pos_site_id
 _symmetry_equiv_pos_as_xyz
  1  'x, y, z'
  2  '-x, -y, -z'
  3  '-x, y, -z+1/2'
  4  'x, -y, z+1/2'
  5  'x+1/2, y+1/2, z'
  6  '-x+1/2, -y+1/2, -z'
  7  '-x+1/2, y+1/2, -z+1/2'
  8  'x+1/2, -y+1/2, z+1/2'
loop_
 _atom_site_type_symbol
 _atom_site_label
 _atom_site_symmetry_multiplicity
 _atom_site_fract_x
 _atom_site_fract_y
 _atom_site_fract_z
 _atom_site_occupancy
  H  H0  8  0.06604145  0.50124716  0.36544928  1
  H  H1  8  0.18009039  0.50147990  0.47955602  1
  C  C2  8  0.12837721  0.50246290  0.34699320  1
  C  C3  8  0.16736328  0.50426249  0.26188569  1
  C  C4  8  0.24355406  1.00429337  0.14070238  1
  N  N5  8  0.13189514  0.50469085  0.17319817  1
  N  N6  8  0.16766600  -0.00504267  0.59588927  1
  N  N7  8  0.18707622  0.49754786  0.90873017  1
  N  N8  8  0.24733593  0.50529633  0.27034404  1
  O  O9  8  0.06033967  0.50457138  0.16808264  1
  O  O10  8  0.10845696  1.00509083  0.14492357  1
  O  O11  8  0.16904822  1.00570152  0.01146029  1
  O  O12  8  0.17767420  0.49492498  0.60526939  1
