###############################################################################################
#
# CIF file generated by modified CIFWriter class 
# in pymatgen (v2025.03.10) https://pymatgen.org/
#
###############################################################################################
data_MACE-OFF23(L)_30eade37b6fe7ea
_symmetry_space_group_name_H-M   I4/m
_cell_length_a   14.06189952
_cell_length_b   14.06189952
_cell_length_c   5.97933164
_cell_angle_alpha   90.00000000
_cell_angle_beta   90.00000000
_cell_angle_gamma   90.00000000
_symmetry_Int_Tables_number   87
_chemical_formula_moiety   'C3 H2 N4 O4'
_chemical_formula_sum   'H16 C24 N32 O32'
_cell_volume   1182.33520947
_cell_formula_units_Z   8
loop_
 _symmetry_equiv_pos_site_id
 _symmetry_equiv_pos_as_xyz
  1  'x, y, z'
  2  '-x, -y, -z+520/713'
  3  '-y, x, z'
  4  'y, -x, -z+520/713'
  5  '-x, -y, z'
  6  'x, y, -z+520/713'
  7  'y, -x, z'
  8  '-y, x, -z+520/713'
  9  'x+1/2, y+1/2, z+1/2'
  10  '-x+1/2, -y+1/2, -z+97/423'
  11  '-y+1/2, x+1/2, z+1/2'
  12  'y+1/2, -x+1/2, -z+97/423'
  13  '-x+1/2, -y+1/2, z+1/2'
  14  'x+1/2, y+1/2, -z+97/423'
  15  'y+1/2, -x+1/2, z+1/2'
  16  '-y+1/2, x+1/2, -z+97/423'
loop_
 _atom_site_type_symbol
 _atom_site_label
 _atom_site_symmetry_multiplicity
 _atom_site_fract_x
 _atom_site_fract_y
 _atom_site_fract_z
 _atom_site_occupancy
  H  H0  8  -0.15032326  0.84226044  0.86465632  1
  H  H1  8  0.19547075  0.24534329  0.36465144  1
  C  C2  8  -0.08028558  0.70676750  0.86470624  1
  C  C3  8  0.12337918  0.70118575  0.36472449  1
  C  C4  8  0.21612137  0.73377196  0.36467991  1
  N  N5  8  -0.15421166  0.76942144  0.86466440  1
  N  N6  8  -0.10554360  0.61844253  0.86473479  1
  N  N7  8  0.01602107  0.74058910  0.86471238  1
  N  N8  8  0.03934339  0.75926977  0.36471896  1
  O  O9  8  -0.03818310  0.71985585  0.36469035  1
  O  O10  8  0.02717498  0.82729497  0.86471559  1
  O  O11  8  0.05095877  0.84458455  0.36475143  1
  O  O12  8  0.08036023  0.68350798  0.86469851  1
