###############################################################################################
#
# CIF file generated by modified CIFWriter class 
# in pymatgen (v2025.03.10) https://pymatgen.org/
#
###############################################################################################
data_MACE-OFF23(L)_314d0c2b59e26e1
_symmetry_space_group_name_H-M   Pbca
_cell_length_a   17.64140219
_cell_length_b   6.43784248
_cell_length_c   10.33541268
_cell_angle_alpha   90.00000000
_cell_angle_beta   90.00000000
_cell_angle_gamma   90.00000000
_symmetry_Int_Tables_number   61
_chemical_formula_moiety   'C3 H2 N4 O4'
_chemical_formula_sum   'H16 C24 N32 O32'
_cell_volume   1173.81936351
_cell_formula_units_Z   8
loop_
 _symmetry_equiv_pos_site_id
 _symmetry_equiv_pos_as_xyz
  1  'x, y, z'
  2  '-x, -y, -z'
  3  'x+1/2, -y+1/2, -z'
  4  '-x+1/2, y+1/2, z'
  5  '-x, y+1/2, -z+1/2'
  6  'x, -y+1/2, z+1/2'
  7  '-x+1/2, -y, z+1/2'
  8  'x+1/2, y, -z+1/2'
loop_
 _atom_site_type_symbol
 _atom_site_label
 _atom_site_symmetry_multiplicity
 _atom_site_fract_x
 _atom_site_fract_y
 _atom_site_fract_z
 _atom_site_occupancy
  H  H0  8  0.07621101  -0.06497040  0.83770132  1
  H  H1  8  0.13866121  0.21576276  0.37190477  1
  C  C2  8  0.09347381  0.01809933  0.62989246  1
  C  C3  8  0.09524837  0.03676998  0.76194335  1
  C  C4  8  0.14551327  0.19815924  0.16561837  1
  N  N5  8  0.06336867  -0.15100310  0.55646974  1
  N  N6  8  0.12475628  0.18481035  0.56983728  1
  N  N7  8  0.12900934  0.22184240  0.78287370  1
  N  N8  8  0.18569478  0.00318885  0.15144879  1
  O  O9  8  0.03962731  -0.30087829  0.61609093  1
  O  O10  8  0.06287843  -0.13506132  0.43933507  1
  O  O11  8  0.19661981  -0.06038097  0.04342725  1
  O  O12  8  0.20557527  -0.08209800  0.25148244  1
