###############################################################################################
#
# CIF file generated by modified CIFWriter class 
# in pymatgen (v2025.03.10) https://pymatgen.org/
#
###############################################################################################
data_MACE-OFF23(L)_326f7032905e73
_symmetry_space_group_name_H-M   Pbca
_cell_length_a   5.62029809
_cell_length_b   20.74813314
_cell_length_c   10.16349298
_cell_angle_alpha   90.00000000
_cell_angle_beta   90.00000000
_cell_angle_gamma   90.00000000
_symmetry_Int_Tables_number   61
_chemical_formula_moiety   'C3 H2 N4 O4'
_chemical_formula_sum   'H16 C24 N32 O32'
_cell_volume   1185.17196111
_cell_formula_units_Z   8
loop_
 _symmetry_equiv_pos_site_id
 _symmetry_equiv_pos_as_xyz
  1  'x, y, z'
  2  '-x, -y, -z'
  3  '-x+1/2, -y, z+1/2'
  4  'x+1/2, y, -z+1/2'
  5  'x+1/2, -y+1/2, -z'
  6  '-x+1/2, y+1/2, z'
  7  '-x, y+1/2, -z+1/2'
  8  'x, -y+1/2, z+1/2'
loop_
 _atom_site_type_symbol
 _atom_site_label
 _atom_site_symmetry_multiplicity
 _atom_site_fract_x
 _atom_site_fract_y
 _atom_site_fract_z
 _atom_site_occupancy
  H  H0  8  0.17342025  0.17514801  1.09504820  1
  H  H1  8  0.24534648  0.05482548  1.06678248  1
  C  C2  8  0.19517270  0.17307365  0.87430859  1
  C  C3  8  0.19654912  0.15046698  1.00238094  1
  C  C4  8  0.24387067  0.57499832  0.85976144  1
  N  N5  8  0.15609899  0.23802103  0.83348059  1
  N  N6  8  0.20619136  0.51186050  0.81109542  1
  N  N7  8  0.23131682  0.12578170  0.78640537  1
  N  N8  8  0.23620679  0.08719004  0.99051046  1
  O  O9  8  0.13319801  0.22105570  0.41779185  1
  O  O10  8  0.14613482  0.24848122  0.71500601  1
  O  O11  8  0.18415924  0.46794390  0.88885533  1
  O  O12  8  0.19998911  0.50579352  0.69036979  1
