###############################################################################################
#
# CIF file generated by modified CIFWriter class 
# in pymatgen (v2025.03.10) https://pymatgen.org/
#
###############################################################################################
data_MACE-OFF23(L)_334f0114690c648
_symmetry_space_group_name_H-M   C2/c
_cell_length_a   17.07369988
_cell_length_b   10.18035859
_cell_length_c   10.61556442
_cell_angle_alpha   90.00000000
_cell_angle_beta   42.47358948
_cell_angle_gamma   90.00000000
_symmetry_Int_Tables_number   15
_chemical_formula_moiety   'C3 H2 N4 O4'
_chemical_formula_sum   'H16 C24 N32 O32'
_cell_volume   1245.94418334
_cell_formula_units_Z   8
loop_
 _symmetry_equiv_pos_site_id
 _symmetry_equiv_pos_as_xyz
  1  'x, y, z'
  2  '-x, -y, -z'
  3  '-x, y, -z+1/2'
  4  'x, -y, z+1/2'
  5  'x+1/2, y+1/2, z'
  6  '-x+1/2, -y+1/2, -z'
  7  '-x+1/2, y+1/2, -z+1/2'
  8  'x+1/2, -y+1/2, z+1/2'
loop_
 _atom_site_type_symbol
 _atom_site_label
 _atom_site_symmetry_multiplicity
 _atom_site_fract_x
 _atom_site_fract_y
 _atom_site_fract_z
 _atom_site_occupancy
  H  H0  8  0.14135228  0.61263514  0.29624426  1
  H  H1  8  0.14226807  0.63479923  -0.19642117  1
  C  C2  8  0.13463986  0.61200296  0.01352441  1
  C  C3  8  0.13476053  0.59190254  0.51460964  1
  C  C4  8  0.13936795  0.55634904  0.38424426  1
  N  N5  8  0.13230331  0.51402498  0.09497781  1
  N  N6  8  0.13352117  0.72292530  0.56323380  1
  N  N7  8  0.13403913  0.25176449  0.55009797  1
  N  N8  8  0.13881656  0.42460002  0.38604965  1
  O  O9  8  0.11859886  0.26078003  0.19452479  1
  O  O10  8  0.12163007  0.22702367  0.67661824  1
  O  O11  8  0.14588904  0.82842604  -0.04685753  1
  O  O12  8  0.14675905  0.18822345  -0.02664711  1
