###############################################################################################
#
# CIF file generated by modified CIFWriter class 
# in pymatgen (v2025.03.10) https://pymatgen.org/
#
###############################################################################################
data_MACE-OFF23(L)_3387ef49ef75f2a
_symmetry_space_group_name_H-M   P4_2/n
_cell_length_a   8.10433446
_cell_length_b   8.10433446
_cell_length_c   24.02731133
_cell_angle_alpha   90.00000000
_cell_angle_beta   90.00000000
_cell_angle_gamma   90.00000000
_symmetry_Int_Tables_number   86
_chemical_formula_moiety   'C3 H2 N4 O4'
_chemical_formula_sum   'H16 C24 N32 O32'
_cell_volume   1578.11950235
_cell_formula_units_Z   8
loop_
 _symmetry_equiv_pos_site_id
 _symmetry_equiv_pos_as_xyz
  1  'x, y, z'
  2  '-y+1/2, x+1/2, z+1/2'
  3  '-x, -y, z'
  4  'y+1/2, -x+1/2, z+1/2'
  5  '-x+1/2, -y+1/2, -z+1/2'
  6  'y, -x, -z'
  7  'x+1/2, y+1/2, -z+1/2'
  8  '-y, x, -z'
loop_
 _atom_site_type_symbol
 _atom_site_label
 _atom_site_symmetry_multiplicity
 _atom_site_fract_x
 _atom_site_fract_y
 _atom_site_fract_z
 _atom_site_occupancy
  H  H0  8  0.09135823  0.66682080  0.26654143  1
  H  H1  8  0.12131653  0.64663174  0.16159421  1
  C  C2  8  -0.08404375  0.67375883  0.74524909  1
  C  C3  8  0.03183975  0.78459429  0.76366278  1
  C  C4  8  0.04294275  0.79664412  0.67724065  1
  N  N5  8  -0.07551297  0.68423501  0.68893912  1
  N  N6  8  0.06884711  0.82181300  0.82068682  1
  N  N7  8  0.09113510  0.83132468  0.62028112  1
  N  N8  8  0.11163539  0.86032512  0.72103206  1
  O  O9  8  -0.01015101  0.75239084  0.85608779  1
  O  O10  8  0.03228067  0.74322237  0.58502820  1
  O  O11  8  0.05533403  0.18667066  0.38647855  1
  O  O12  8  0.07709071  0.17848749  0.17033860  1
