###############################################################################################
#
# CIF file generated by modified CIFWriter class 
# in pymatgen (v2025.03.10) https://pymatgen.org/
#
###############################################################################################
data_MACE-OFF23(L)_33fd4018d8bd5ad
_symmetry_space_group_name_H-M   P4_32_12
_cell_length_a   10.48501907
_cell_length_b   10.48501907
_cell_length_c   12.72988406
_cell_angle_alpha   90.00000000
_cell_angle_beta   90.00000000
_cell_angle_gamma   90.00000000
_symmetry_Int_Tables_number   96
_chemical_formula_moiety   'C3 H2 N4 O4'
_chemical_formula_sum   'H16 C24 N32 O32'
_cell_volume   1399.46776023
_cell_formula_units_Z   8
loop_
 _symmetry_equiv_pos_site_id
 _symmetry_equiv_pos_as_xyz
  1  'x, y, z'
  2  '-y+1/2, x+1/2, z+3/4'
  3  '-x, -y, z+1/2'
  4  'y+1/2, -x+1/2, z+1/4'
  5  'x+1/2, -y+1/2, -z+1/4'
  6  '-y, -x, -z+1/2'
  7  '-x+1/2, y+1/2, -z+3/4'
  8  'y, x, -z'
loop_
 _atom_site_type_symbol
 _atom_site_label
 _atom_site_symmetry_multiplicity
 _atom_site_fract_x
 _atom_site_fract_y
 _atom_site_fract_z
 _atom_site_occupancy
  H  H0  8  -0.14573917  0.70737458  0.12611480  1
  H  H1  8  0.01053582  0.24113705  0.87409425  1
  C  C2  8  -0.10003255  0.61608080  0.11758086  1
  C  C3  8  -0.07472365  0.41060467  0.10839418  1
  C  C4  8  0.02530152  0.58136116  0.10769878  1
  N  N5  8  -0.11023363  0.27626836  0.10536433  1
  N  N6  8  -0.00309484  0.33608832  0.86704193  1
  N  N7  8  0.04128074  0.45310636  0.10130684  1
  N  N8  8  0.13372264  0.66685554  0.10664041  1
  O  O9  8  -0.22341672  0.25427717  0.11385575  1
  O  O10  8  -0.12259254  0.73800393  0.83866986  1
  O  O11  8  -0.02584491  0.19956974  0.09303324  1
  O  O12  8  0.11239212  0.77919014  0.12541585  1
