###############################################################################################
#
# CIF file generated by modified CIFWriter class 
# in pymatgen (v2025.03.10) https://pymatgen.org/
#
###############################################################################################
data_MACE-OFF23(L)_3410c8549608b60
_symmetry_space_group_name_H-M   P4_32_12
_cell_length_a   8.09245487
_cell_length_b   8.09245487
_cell_length_c   18.15551721
_cell_angle_alpha   90.00000000
_cell_angle_beta   90.00000000
_cell_angle_gamma   90.00000000
_symmetry_Int_Tables_number   96
_chemical_formula_moiety   'C3 H2 N4 O4'
_chemical_formula_sum   'H16 C24 N32 O32'
_cell_volume   1188.96534995
_cell_formula_units_Z   8
loop_
 _symmetry_equiv_pos_site_id
 _symmetry_equiv_pos_as_xyz
  1  'x, y, z'
  2  '-y+1/2, x+1/2, z+3/4'
  3  '-x, -y, z+1/2'
  4  'y+1/2, -x+1/2, z+1/4'
  5  'x+1/2, -y+1/2, -z+1/4'
  6  '-y, -x, -z+1/2'
  7  '-x+1/2, y+1/2, -z+3/4'
  8  'y, x, -z'
loop_
 _atom_site_type_symbol
 _atom_site_label
 _atom_site_symmetry_multiplicity
 _atom_site_fract_x
 _atom_site_fract_y
 _atom_site_fract_z
 _atom_site_occupancy
  H  H0  8  -0.01871270  0.29878977  0.77929965  1
  H  H1  8  0.15027701  0.78565972  0.56313006  1
  C  C2  8  -0.00311713  0.13196611  0.87753624  1
  C  C3  8  0.04630108  0.24205073  0.82427398  1
  C  C4  8  0.17634747  0.24447238  0.10102905  1
  N  N5  8  0.07064268  -0.16927107  0.10932261  1
  N  N6  8  0.08912523  0.12117522  0.07714759  1
  N  N7  8  0.10148095  0.68760810  0.81113585  1
  N  N8  8  0.20807715  0.27043642  0.83956800  1
  O  O9  8  0.00490511  0.79543584  0.82883692  1
  O  O10  8  0.01540838  -0.19934308  0.04890294  1
  O  O11  8  0.08047048  0.59219077  0.76026185  1
  O  O12  8  0.08332501  -0.26848802  0.15944196  1
