###############################################################################################
#
# CIF file generated by modified CIFWriter class 
# in pymatgen (v2025.03.10) https://pymatgen.org/
#
###############################################################################################
data_MACE-OFF23(L)_347ad18b354414b
_symmetry_space_group_name_H-M   Pbcn
_cell_length_a   13.29192171
_cell_length_b   10.87363270
_cell_length_c   9.71312333
_cell_angle_alpha   90.00000000
_cell_angle_beta   90.00000000
_cell_angle_gamma   90.00000000
_symmetry_Int_Tables_number   60
_chemical_formula_moiety   'C3 H2 N4 O4'
_chemical_formula_sum   'H16 C24 N32 O32'
_cell_volume   1403.85203751
_cell_formula_units_Z   8
loop_
 _symmetry_equiv_pos_site_id
 _symmetry_equiv_pos_as_xyz
  1  'x, y, z'
  2  '-x, -y, -z'
  3  '-x+1/2, -y+1/2, z+1/2'
  4  'x+1/2, y+1/2, -z+1/2'
  5  'x+1/2, -y+1/2, -z'
  6  '-x+1/2, y+1/2, z'
  7  '-x, y, -z+1/2'
  8  'x, -y, z+1/2'
loop_
 _atom_site_type_symbol
 _atom_site_label
 _atom_site_symmetry_multiplicity
 _atom_site_fract_x
 _atom_site_fract_y
 _atom_site_fract_z
 _atom_site_occupancy
  H  H0  8  0.04497668  0.36190626  0.51155869  1
  H  H1  8  0.13455983  0.18641875  0.63482563  1
  C  C2  8  0.17052185  0.26229871  0.58421303  1
  C  C3  8  0.19103318  0.43066087  0.46961860  1
  C  C4  8  0.22987142  0.20700773  0.06769971  1
  N  N5  8  0.12063343  0.35327292  0.51999180  1
  N  N6  8  0.14542406  0.27564164  0.11920331  1
  N  N7  8  0.16376836  0.45992980  -0.10592184  1
  N  N8  8  0.21712435  0.10206603  -0.00390907  1
  O  O9  8  0.06111578  0.23758782  0.09723792  1
  O  O10  8  0.07422541  0.56244425  0.38333753  1
  O  O11  8  0.16410253  0.37141798  0.17990821  1
  O  O12  8  0.23115098  0.39831876  -0.15242999  1
