###############################################################################################
#
# CIF file generated by modified CIFWriter class 
# in pymatgen (v2025.03.10) https://pymatgen.org/
#
###############################################################################################
data_MACE-OFF23(L)_34ad7124dd6271c
_symmetry_space_group_name_H-M   P4_32_12
_cell_length_a   7.76113167
_cell_length_b   7.76113167
_cell_length_c   20.58968577
_cell_angle_alpha   90.00000000
_cell_angle_beta   90.00000000
_cell_angle_gamma   90.00000000
_symmetry_Int_Tables_number   96
_chemical_formula_moiety   'C3 H2 N4 O4'
_chemical_formula_sum   'H16 C24 N32 O32'
_cell_volume   1240.22311541
_cell_formula_units_Z   8
loop_
 _symmetry_equiv_pos_site_id
 _symmetry_equiv_pos_as_xyz
  1  'x, y, z'
  2  '-y+1/2, x+1/2, z+3/4'
  3  '-x, -y, z+1/2'
  4  'y+1/2, -x+1/2, z+1/4'
  5  'x+1/2, -y+1/2, -z+1/4'
  6  '-y, -x, -z+1/2'
  7  '-x+1/2, y+1/2, -z+3/4'
  8  'y, x, -z'
loop_
 _atom_site_type_symbol
 _atom_site_label
 _atom_site_symmetry_multiplicity
 _atom_site_fract_x
 _atom_site_fract_y
 _atom_site_fract_z
 _atom_site_occupancy
  H  H0  8  -0.04262875  0.24920957  0.77192454  1
  H  H1  8  0.13428289  0.21448802  0.44528930  1
  C  C2  8  -0.02715671  0.31595893  0.72661720  1
  C  C3  8  0.04563165  0.41741084  0.38772715  1
  C  C4  8  0.11891242  0.37071129  0.69566654  1
  N  N5  8  -0.03702946  0.30863838  0.33972069  1
  N  N6  8  0.04237859  0.58470314  0.39006244  1
  N  N7  8  0.13099313  0.34310440  0.43768492  1
  N  N8  8  0.15637552  0.79136453  0.47001992  1
  O  O9  8  -0.12474090  0.63042440  0.55021917  1
  O  O10  8  -0.00481175  0.15522658  0.34370683  1
  O  O11  8  0.08683431  0.89491440  0.06195925  1
  O  O12  8  0.19713475  0.76871383  -0.02162447  1
