###############################################################################################
#
# CIF file generated by modified CIFWriter class 
# in pymatgen (v2025.03.10) https://pymatgen.org/
#
###############################################################################################
data_MACE-OFF23(L)_3567f4176f52e26
_symmetry_space_group_name_H-M   Pcca
_cell_length_a   8.32870958
_cell_length_b   13.12818923
_cell_length_c   13.64729574
_cell_angle_alpha   90.00000000
_cell_angle_beta   90.00000000
_cell_angle_gamma   90.00000000
_symmetry_Int_Tables_number   54
_chemical_formula_moiety   'C3 H2 N4 O4'
_chemical_formula_sum   'H16 C24 N32 O32'
_cell_volume   1492.20726302
_cell_formula_units_Z   8
loop_
 _symmetry_equiv_pos_site_id
 _symmetry_equiv_pos_as_xyz
  1  'x, y, z'
  2  '-x, -y, -z'
  3  '-x+1/2, -y, z'
  4  'x+1/2, y, -z'
  5  'x+1/2, -y, -z+1/2'
  6  '-x+1/2, y, z+1/2'
  7  '-x, y, -z+1/2'
  8  'x, -y, z+1/2'
loop_
 _atom_site_type_symbol
 _atom_site_label
 _atom_site_symmetry_multiplicity
 _atom_site_fract_x
 _atom_site_fract_y
 _atom_site_fract_z
 _atom_site_occupancy
  H  H0  8  0.08874710  0.02488998  0.10795817  1
  H  H1  8  0.21871687  0.07828236  0.75033560  1
  C  C2  8  0.03374485  0.18128093  0.10103077  1
  C  C3  8  0.19023696  0.23080305  0.20853158  1
  C  C4  8  0.20595151  0.12714187  0.20757647  1
  N  N5  8  -0.08266841  0.17512893  0.02228598  1
  N  N6  8  0.08252826  0.26448112  0.14217487  1
  N  N7  8  0.10107992  0.09515977  0.13748540  1
  N  N8  8  0.21845039  0.29809948  0.77177933  1
  O  O9  8  -0.13033406  0.25183318  -0.01426470  1
  O  O10  8  -0.12557766  0.08799406  -0.00039150  1
  O  O11  8  0.13640393  0.25406640  0.83361725  1
  O  O12  8  0.22743437  0.38796204  0.75976526  1
