###############################################################################################
#
# CIF file generated by modified CIFWriter class 
# in pymatgen (v2025.03.10) https://pymatgen.org/
#
###############################################################################################
data_MACE-OFF23(L)_360863b3e0eebf6
_symmetry_space_group_name_H-M   C2/c
_cell_length_a   11.56324281
_cell_length_b   10.04987646
_cell_length_c   10.52826274
_cell_angle_alpha   90.00000000
_cell_angle_beta   84.24564918
_cell_angle_gamma   90.00000000
_symmetry_Int_Tables_number   15
_chemical_formula_moiety   'C3 H2 N4 O4'
_chemical_formula_sum   'H16 C24 N32 O32'
_cell_volume   1217.31535527
_cell_formula_units_Z   8
loop_
 _symmetry_equiv_pos_site_id
 _symmetry_equiv_pos_as_xyz
  1  'x, y, z'
  2  '-x, -y, -z'
  3  '-x, y, -z+1/2'
  4  'x, -y, z+1/2'
  5  'x+1/2, y+1/2, z'
  6  '-x+1/2, -y+1/2, -z'
  7  '-x+1/2, y+1/2, -z+1/2'
  8  'x+1/2, -y+1/2, z+1/2'
loop_
 _atom_site_type_symbol
 _atom_site_label
 _atom_site_symmetry_multiplicity
 _atom_site_fract_x
 _atom_site_fract_y
 _atom_site_fract_z
 _atom_site_occupancy
  H  H0  8  0.09177814  0.35854764  1.06721701  1
  H  H1  8  0.09479638  0.10866507  1.04347043  1
  C  C2  8  0.10126776  0.69451979  0.47773874  1
  C  C3  8  0.11588708  0.34992647  0.85284186  1
  C  C4  8  0.11747136  0.14429210  0.84094482  1
  N  N5  8  0.10297913  0.82696489  0.46785073  1
  N  N6  8  0.11785172  0.48608206  0.81392767  1
  N  N7  8  0.11828976  0.00973213  0.79830629  1
  N  N8  8  0.12608593  0.24897015  0.76819756  1
  O  O9  8  0.10324265  -0.07646528  0.87860598  1
  O  O10  8  0.10331477  0.43008803  0.39635889  1
  O  O11  8  0.13351270  -0.01003731  0.68281428  1
  O  O12  8  0.13539686  0.48958846  0.19938209  1
