###############################################################################################
#
# CIF file generated by modified CIFWriter class 
# in pymatgen (v2025.03.10) https://pymatgen.org/
#
###############################################################################################
data_MACE-OFF23(L)_365b0d2f4cd2ff0
_symmetry_space_group_name_H-M   Pbca
_cell_length_a   15.12458577
_cell_length_b   6.54222074
_cell_length_c   14.01090347
_cell_angle_alpha   90.00000000
_cell_angle_beta   90.00000000
_cell_angle_gamma   90.00000000
_symmetry_Int_Tables_number   61
_chemical_formula_moiety   'C3 H2 N4 O4'
_chemical_formula_sum   'H16 C24 N32 O32'
_cell_volume   1386.35618369
_cell_formula_units_Z   8
loop_
 _symmetry_equiv_pos_site_id
 _symmetry_equiv_pos_as_xyz
  1  'x, y, z'
  2  '-x, -y, -z'
  3  'x+1/2, -y+1/2, -z'
  4  '-x+1/2, y+1/2, z'
  5  '-x, y+1/2, -z+1/2'
  6  'x, -y+1/2, z+1/2'
  7  '-x+1/2, -y, z+1/2'
  8  'x+1/2, y, -z+1/2'
loop_
 _atom_site_type_symbol
 _atom_site_label
 _atom_site_symmetry_multiplicity
 _atom_site_fract_x
 _atom_site_fract_y
 _atom_site_fract_z
 _atom_site_occupancy
  H  H0  8  0.05860881  0.01531740  0.79866371  1
  H  H1  8  0.10985675  0.22065537  0.94332779  1
  C  C2  8  0.08256975  0.16889051  0.79658064  1
  C  C3  8  0.09414717  0.19627375  0.22281371  1
  C  C4  8  0.13658077  0.04262440  0.34346073  1
  N  N5  8  0.07271779  0.23513101  0.12471976  1
  N  N6  8  0.11097401  0.22862599  0.37449801  1
  N  N7  8  0.12827325  0.01513739  0.25233698  1
  N  N8  8  0.16837624  -0.11194819  0.41036444  1
  O  O9  8  0.03253011  0.10812793  0.60666390  1
  O  O10  8  0.09509827  0.10992196  0.06498185  1
  O  O11  8  0.17749821  -0.05768316  0.49227103  1
  O  O12  8  0.18280870  -0.28085199  0.37869107  1
