###############################################################################################
#
# CIF file generated by modified CIFWriter class 
# in pymatgen (v2025.03.10) https://pymatgen.org/
#
###############################################################################################
data_MACE-OFF23(L)_36fae29ba76398a
_symmetry_space_group_name_H-M   Ama2
_cell_length_a   38.32561858
_cell_length_b   10.54649953
_cell_length_c   3.34362086
_cell_angle_alpha   90.00000000
_cell_angle_beta   90.00000000
_cell_angle_gamma   90.00000000
_symmetry_Int_Tables_number   40
_chemical_formula_moiety   'C3 H2 N4 O4'
_chemical_formula_sum   'H16 C24 N32 O32'
_cell_volume   1351.49528853
_cell_formula_units_Z   8
loop_
 _symmetry_equiv_pos_site_id
 _symmetry_equiv_pos_as_xyz
  1  'x, y, z'
  2  '-x, -y, z'
  3  '-x+1/2, y, z'
  4  'x+1/2, -y, z'
  5  'x, y+1/2, z+1/2'
  6  '-x, -y+1/2, z+1/2'
  7  '-x+1/2, y+1/2, z+1/2'
  8  'x+1/2, -y+1/2, z+1/2'
loop_
 _atom_site_type_symbol
 _atom_site_label
 _atom_site_symmetry_multiplicity
 _atom_site_fract_x
 _atom_site_fract_y
 _atom_site_fract_z
 _atom_site_occupancy
  H  H0  8  0.06108324  0.62219447  -0.31198666  1
  H  H1  8  0.12290370  0.56390798  -0.10584649  1
  C  C2  8  0.07434397  0.31033382  -0.63619512  1
  C  C3  8  0.11190409  0.15748007  -0.58772666  1
  C  C4  8  0.12496411  0.27005949  -0.45018822  1
  N  N5  8  0.04291292  0.37561911  -0.75487829  1
  N  N6  8  0.07888608  0.18547066  -0.70814477  1
  N  N7  8  0.10138623  0.36588480  -0.47841560  1
  N  N8  8  0.15957150  0.28990278  -0.28402169  1
  O  O9  8  0.02174966  0.31378913  -0.94180423  1
  O  O10  8  0.04062312  0.48751976  -0.67264867  1
  O  O11  8  0.16547366  0.39172817  -0.13054317  1
  O  O12  8  0.17953277  0.70156353  0.19032677  1
