###############################################################################################
#
# CIF file generated by modified CIFWriter class 
# in pymatgen (v2025.03.10) https://pymatgen.org/
#
###############################################################################################
data_MACE-OFF23(L)_3b287fd8efbceb6
_symmetry_space_group_name_H-M   Pcca
_cell_length_a   23.44941310
_cell_length_b   5.90136318
_cell_length_c   9.53902187
_cell_angle_alpha   90.00000000
_cell_angle_beta   90.00000000
_cell_angle_gamma   90.00000000
_symmetry_Int_Tables_number   54
_chemical_formula_moiety   'C3 H2 N4 O4'
_chemical_formula_sum   'H16 C24 N32 O32'
_cell_volume   1320.04326149
_cell_formula_units_Z   8
loop_
 _symmetry_equiv_pos_site_id
 _symmetry_equiv_pos_as_xyz
  1  'x, y, z'
  2  '-x, -y, -z'
  3  '-x+1/2, -y, z'
  4  'x+1/2, y, -z'
  5  'x+1/2, -y, -z+1/2'
  6  '-x+1/2, y, z+1/2'
  7  '-x, y, -z+1/2'
  8  'x, -y, z+1/2'
loop_
 _atom_site_type_symbol
 _atom_site_label
 _atom_site_symmetry_multiplicity
 _atom_site_fract_x
 _atom_site_fract_y
 _atom_site_fract_z
 _atom_site_occupancy
  H  H0  8  0.20490891  -0.06626803  0.97143794  1
  H  H1  8  0.23214083  0.28250560  1.12341035  1
  C  C2  8  0.12141226  0.11101410  0.96914139  1
  C  C3  8  0.14695477  0.38759134  1.08627779  1
  C  C4  8  0.17756308  0.07160654  0.99959876  1
  N  N5  8  0.08542951  -0.04404440  0.89074344  1
  N  N6  8  0.10247919  0.30779498  1.02259949  1
  N  N7  8  0.14925335  0.40150323  0.66259061  1
  N  N8  8  0.19408510  0.25424820  1.07627353  1
  O  O9  8  0.03667462  0.00348837  0.87180560  1
  O  O10  8  0.10706278  0.28986807  0.67451041  1
  O  O11  8  0.11010232  -0.21564738  0.85011932  1
  O  O12  8  0.19648396  0.34934380  0.71211785  1
