###############################################################################################
#
# CIF file generated by modified CIFWriter class 
# in pymatgen (v2025.03.10) https://pymatgen.org/
#
###############################################################################################
data_MACE-OFF23(L)_3f45f6a227c5bed
_symmetry_space_group_name_H-M   Iba2
_cell_length_a   13.04687728
_cell_length_b   12.82386251
_cell_length_c   8.36352501
_cell_angle_alpha   90.00000000
_cell_angle_beta   90.00000000
_cell_angle_gamma   90.00000000
_symmetry_Int_Tables_number   45
_chemical_formula_moiety   'C3 H2 N4 O4'
_chemical_formula_sum   'H16 C24 N32 O32'
_cell_volume   1399.31274687
_cell_formula_units_Z   8
loop_
 _symmetry_equiv_pos_site_id
 _symmetry_equiv_pos_as_xyz
  1  'x, y, z'
  2  '-x, -y, z'
  3  'x, -y, z+1/2'
  4  '-x, y, z+1/2'
  5  'x+1/2, y+1/2, z+1/2'
  6  '-x+1/2, -y+1/2, z+1/2'
  7  'x+1/2, -y+1/2, z'
  8  '-x+1/2, y+1/2, z'
loop_
 _atom_site_type_symbol
 _atom_site_label
 _atom_site_symmetry_multiplicity
 _atom_site_fract_x
 _atom_site_fract_y
 _atom_site_fract_z
 _atom_site_occupancy
  H  H0  8  0.07355104  0.28750398  0.21985629  1
  H  H1  8  0.23252244  0.20208870  0.33613459  1
  C  C2  8  -0.00460237  0.18602110  0.40223710  1
  C  C3  8  0.07286158  0.76924603  0.81399590  1
  C  C4  8  0.12950051  0.12309238  0.49190617  1
  N  N5  8  -0.11186276  0.20285804  0.38359089  1
  N  N6  8  0.03147692  0.11900021  0.51371704  1
  N  N7  8  0.15899051  0.18803558  0.37363641  1
  N  N8  8  0.20529156  0.06902094  0.59087388  1
  O  O9  8  -0.17097726  0.16129436  0.47474842  1
  O  O10  8  -0.13963465  0.26073189  0.27309258  1
  O  O11  8  0.17415972  0.01890824  0.70205540  1
  O  O12  8  0.20547599  0.41742861  1.05398875  1
