###############################################################################################
#
# CIF file generated by modified CIFWriter class 
# in pymatgen (v2025.03.10) https://pymatgen.org/
#
###############################################################################################
data_MACE-OFF23(L)_403a9608652dbd0
_symmetry_space_group_name_H-M   C2/m
_cell_length_a   10.09949508
_cell_length_b   26.93614124
_cell_length_c   7.52956102
_cell_angle_alpha   90.00000000
_cell_angle_beta   76.58550923
_cell_angle_gamma   90.00000000
_symmetry_Int_Tables_number   12
_chemical_formula_moiety   'C3 H2 N4 O4'
_chemical_formula_sum   'H16 C24 N32 O32'
_cell_volume   1992.46779751
_cell_formula_units_Z   8
loop_
 _symmetry_equiv_pos_site_id
 _symmetry_equiv_pos_as_xyz
  1  'x, y, z'
  2  '-x, -y, -z'
  3  '-x, y, -z'
  4  'x, -y, z'
  5  'x+1/2, y+1/2, z'
  6  '-x+1/2, -y+1/2, -z'
  7  '-x+1/2, y+1/2, -z'
  8  'x+1/2, -y+1/2, z'
loop_
 _atom_site_type_symbol
 _atom_site_label
 _atom_site_symmetry_multiplicity
 _atom_site_fract_x
 _atom_site_fract_y
 _atom_site_fract_z
 _atom_site_occupancy
  H  H0  8  -0.03180097  0.74794230  0.71500696  1
  H  H1  8  0.00529996  0.16453952  0.81099020  1
  C  C2  8  0.08133017  0.19321150  0.79167227  1
  C  C3  8  0.17714621  0.73521051  0.71888087  1
  C  C4  8  0.21103404  0.80540041  0.81771689  1
  N  N5  8  0.06132071  0.23907941  0.72779908  1
  N  N6  8  0.19558018  0.68458736  0.65373132  1
  N  N7  8  0.22194537  0.65677772  0.09947923  1
  N  N8  8  0.22836674  0.73923929  0.23094286  1
  O  O9  8  0.10654380  0.66725111  0.58946884  1
  O  O10  8  0.11411436  0.66822136  0.06373035  1
  O  O11  8  0.19868151  0.16441130  0.33728693  1
  O  O12  8  0.22052856  0.11750179  0.93541977  1
