###############################################################################################
#
# CIF file generated by modified CIFWriter class 
# in pymatgen (v2025.03.10) https://pymatgen.org/
#
###############################################################################################
data_MACE-OFF23(L)_408492c24034b66
_symmetry_space_group_name_H-M   Pnna
_cell_length_a   22.79048081
_cell_length_b   7.73973542
_cell_length_c   8.43444251
_cell_angle_alpha   90.00000000
_cell_angle_beta   90.00000000
_cell_angle_gamma   90.00000000
_symmetry_Int_Tables_number   52
_chemical_formula_moiety   'C3 H2 N4 O4'
_chemical_formula_sum   'H16 C24 N32 O32'
_cell_volume   1487.77064371
_cell_formula_units_Z   8
loop_
 _symmetry_equiv_pos_site_id
 _symmetry_equiv_pos_as_xyz
  1  'x, y, z'
  2  '-x, -y, -z'
  3  '-x+1/2, -y, z'
  4  'x+1/2, y, -z'
  5  'x, -y+1/2, -z+1/2'
  6  '-x, y+1/2, z+1/2'
  7  '-x+1/2, y+1/2, -z+1/2'
  8  'x+1/2, -y+1/2, z+1/2'
loop_
 _atom_site_type_symbol
 _atom_site_label
 _atom_site_symmetry_multiplicity
 _atom_site_fract_x
 _atom_site_fract_y
 _atom_site_fract_z
 _atom_site_occupancy
  H  H0  8  -0.09438250  0.10236877  -0.13224691  1
  H  H1  8  0.01623725  0.08356874  -0.16155672  1
  C  C2  8  -0.07813656  0.20913152  0.45421731  1
  C  C3  8  -0.00634798  0.16530157  -0.07835749  1
  C  C4  8  0.01296708  0.22021310  0.46548070  1
  N  N5  8  -0.13831099  0.16067217  0.41926318  1
  N  N6  8  -0.06565996  0.17370800  -0.06829833  1
  N  N7  8  -0.03207943  0.14077559  0.38931754  1
  N  N8  8  0.07294095  0.18448785  0.42601016  1
  O  O9  8  -0.17544325  0.22315145  0.50350033  1
  O  O10  8  -0.14546661  0.06125186  0.31001203  1
  O  O11  8  0.08223605  0.07051678  0.32792465  1
  O  O12  8  0.11042544  0.23138164  0.00922102  1
