###############################################################################################
#
# CIF file generated by modified CIFWriter class 
# in pymatgen (v2025.03.10) https://pymatgen.org/
#
###############################################################################################
data_MACE-OFF23(L)_4652cdb40caeb7a
_symmetry_space_group_name_H-M   Pbcn
_cell_length_a   11.18837051
_cell_length_b   5.98166521
_cell_length_c   17.55423581
_cell_angle_alpha   90.00000000
_cell_angle_beta   90.00000000
_cell_angle_gamma   90.00000000
_symmetry_Int_Tables_number   60
_chemical_formula_moiety   'C3 H2 N4 O4'
_chemical_formula_sum   'H16 C24 N32 O32'
_cell_volume   1174.81875318
_cell_formula_units_Z   8
loop_
 _symmetry_equiv_pos_site_id
 _symmetry_equiv_pos_as_xyz
  1  'x, y, z'
  2  '-x, -y, -z'
  3  '-x+1/2, -y+1/2, z+1/2'
  4  'x+1/2, y+1/2, -z+1/2'
  5  'x+1/2, -y+1/2, -z'
  6  '-x+1/2, y+1/2, z'
  7  '-x, y, -z+1/2'
  8  'x, -y, z+1/2'
loop_
 _atom_site_type_symbol
 _atom_site_label
 _atom_site_symmetry_multiplicity
 _atom_site_fract_x
 _atom_site_fract_y
 _atom_site_fract_z
 _atom_site_occupancy
  H  H0  8  -0.05788133  0.26981444  0.99495575  1
  H  H1  8  -0.03143427  0.18121352  0.85425863  1
  C  C2  8  0.02647320  0.75756823  0.46725862  1
  C  C3  8  0.14225511  0.24535670  0.99335216  1
  C  C4  8  0.15470107  0.16949579  0.87831712  1
  N  N5  8  0.03637061  0.19352720  0.89244163  1
  N  N6  8  0.17909028  0.29329787  1.06963343  1
  N  N7  8  0.19752533  0.11969472  0.80251976  1
  N  N8  8  0.22236058  0.19947599  0.93764687  1
  O  O9  8  0.10170398  0.32685860  1.11640094  1
  O  O10  8  0.12253000  0.89521046  0.25292074  1
  O  O11  8  0.19545444  0.40199788  0.29415838  1
  O  O12  8  0.21347039  0.20132275  0.58282241  1
