###############################################################################################
#
# CIF file generated by modified CIFWriter class 
# in pymatgen (v2025.03.10) https://pymatgen.org/
#
###############################################################################################
data_MACE-OFF23(L)_4905810358a1fde
_symmetry_space_group_name_H-M   P4_32_12
_cell_length_a   8.02075425
_cell_length_b   8.02075425
_cell_length_c   19.72302734
_cell_angle_alpha   90.00000000
_cell_angle_beta   90.00000000
_cell_angle_gamma   90.00000000
_symmetry_Int_Tables_number   96
_chemical_formula_moiety   'C3 H2 N4 O4'
_chemical_formula_sum   'H16 C24 N32 O32'
_cell_volume   1268.83163133
_cell_formula_units_Z   8
loop_
 _symmetry_equiv_pos_site_id
 _symmetry_equiv_pos_as_xyz
  1  'x, y, z'
  2  '-y+1/2, x+1/2, z+3/4'
  3  '-x, -y, z+1/2'
  4  'y+1/2, -x+1/2, z+1/4'
  5  'x+1/2, -y+1/2, -z+1/4'
  6  '-y, -x, -z+1/2'
  7  '-x+1/2, y+1/2, -z+3/4'
  8  'y, x, -z'
loop_
 _atom_site_type_symbol
 _atom_site_label
 _atom_site_symmetry_multiplicity
 _atom_site_fract_x
 _atom_site_fract_y
 _atom_site_fract_z
 _atom_site_occupancy
  H  H0  8  0.04755103  0.66301082  0.27468263  1
  H  H1  8  0.10668471  0.18237961  0.45472411  1
  C  C2  8  -0.07743107  0.60783564  0.18396726  1
  C  C3  8  0.04986515  0.36961123  0.37611831  1
  C  C4  8  0.10173941  0.30862658  0.43722840  1
  N  N5  8  -0.03864871  0.55393467  0.12377709  1
  N  N6  8  -0.00839262  0.26632795  0.32089920  1
  N  N7  8  0.05444125  0.63997889  0.22406435  1
  N  N8  8  0.12690739  0.74623849  0.45972734  1
  O  O9  8  -0.08260676  0.33226652  0.27460910  1
  O  O10  8  0.02115733  0.11794457  0.32569079  1
  O  O11  8  0.08544787  0.86037353  0.42319248  1
  O  O12  8  0.18352029  0.75950822  0.51659940  1
