###############################################################################################
#
# CIF file generated by modified CIFWriter class 
# in pymatgen (v2025.03.10) https://pymatgen.org/
#
###############################################################################################
data_MACE-OFF23(L)_4a5052ea346b35b
_symmetry_space_group_name_H-M   Pbca
_cell_length_a   10.27867384
_cell_length_b   13.55541652
_cell_length_c   8.49929632
_cell_angle_alpha   90.00000000
_cell_angle_beta   90.00000000
_cell_angle_gamma   90.00000000
_symmetry_Int_Tables_number   61
_chemical_formula_moiety   'C3 H2 N4 O4'
_chemical_formula_sum   'H16 C24 N32 O32'
_cell_volume   1184.22144861
_cell_formula_units_Z   8
loop_
 _symmetry_equiv_pos_site_id
 _symmetry_equiv_pos_as_xyz
  1  'x, y, z'
  2  '-x, -y, -z'
  3  '-x, y+1/2, -z+1/2'
  4  'x, -y+1/2, z+1/2'
  5  '-x+1/2, -y, z+1/2'
  6  'x+1/2, y, -z+1/2'
  7  'x+1/2, -y+1/2, -z'
  8  '-x+1/2, y+1/2, z'
loop_
 _atom_site_type_symbol
 _atom_site_label
 _atom_site_symmetry_multiplicity
 _atom_site_fract_x
 _atom_site_fract_y
 _atom_site_fract_z
 _atom_site_occupancy
  H  H0  8  -0.24885556  0.54361362  0.23542885  1
  H  H1  8  -0.20571147  0.68032461  0.43437106  1
  C  C2  8  -0.13358626  0.63123996  0.38722432  1
  C  C3  8  -0.04490594  0.98370642  0.74754002  1
  C  C4  8  -0.00168046  0.62504009  0.41091097  1
  N  N5  8  -0.15945386  0.55974736  0.28146559  1
  N  N6  8  -0.03657781  0.43521040  0.13900513  1
  N  N7  8  0.05400374  0.94602250  0.82169619  1
  N  N8  8  0.07552438  0.68251810  0.51771190  1
  O  O9  8  -0.13894767  0.40201408  0.09025573  1
  O  O10  8  0.01832822  0.73109265  0.61670480  1
  O  O11  8  0.07085787  0.40588196  0.10203260  1
  O  O12  8  0.19320789  0.67766662  0.50506444  1
