###############################################################################################
#
# CIF file generated by modified CIFWriter class 
# in pymatgen (v2025.03.10) https://pymatgen.org/
#
###############################################################################################
data_MACE-OFF23(L)_4e38c2bdc97697a
_symmetry_space_group_name_H-M   I4_1
_cell_length_a   13.89702513
_cell_length_b   13.89702513
_cell_length_c   7.70048752
_cell_angle_alpha   90.00000000
_cell_angle_beta   90.00000000
_cell_angle_gamma   90.00000000
_symmetry_Int_Tables_number   80
_chemical_formula_moiety   'C3 H2 N4 O4'
_chemical_formula_sum   'H16 C24 N32 O32'
_cell_volume   1487.17441996
_cell_formula_units_Z   8
loop_
 _symmetry_equiv_pos_site_id
 _symmetry_equiv_pos_as_xyz
  1  'x, y, z'
  2  '-y, x+1/2, z+1/4'
  3  '-x+1/2, -y+1/2, z+1/2'
  4  'y+1/2, -x, z+3/4'
  5  'x+1/2, y+1/2, z+1/2'
  6  '-y+1/2, x, z+3/4'
  7  '-x, -y, z'
  8  'y, -x+1/2, z+1/4'
loop_
 _atom_site_type_symbol
 _atom_site_label
 _atom_site_symmetry_multiplicity
 _atom_site_fract_x
 _atom_site_fract_y
 _atom_site_fract_z
 _atom_site_occupancy
  H  H0  8  0.05284813  0.93312329  0.79758061  1
  H  H1  8  0.07882789  0.88441903  1.11487451  1
  C  C2  8  0.00807740  0.70149793  0.08103335  1
  C  C3  8  0.05168833  0.61632568  0.12249521  1
  C  C4  8  0.05285958  0.71783572  0.33703067  1
  N  N5  8  -0.03707305  0.72740893  -0.08151117  1
  N  N6  8  0.00961754  0.76511134  0.21463953  1
  N  N7  8  0.07178363  0.75752640  0.50821035  1
  N  N8  8  0.08024916  0.62806731  0.29034054  1
  O  O9  8  -0.06290533  0.81074652  -0.09708466  1
  O  O10  8  -0.04563818  0.66489590  -0.18941862  1
  O  O11  8  0.03173449  0.83149431  0.54545209  1
  O  O12  8  0.12691057  0.71255212  0.60072997  1
