###############################################################################################
#
# CIF file generated by modified CIFWriter class 
# in pymatgen (v2025.03.10) https://pymatgen.org/
#
###############################################################################################
data_MACE-OFF23(L)_520119ad190db58
_symmetry_space_group_name_H-M   Pbcn
_cell_length_a   16.64142251
_cell_length_b   6.21943689
_cell_length_c   10.50150302
_cell_angle_alpha   90.00000000
_cell_angle_beta   90.00000000
_cell_angle_gamma   90.00000000
_symmetry_Int_Tables_number   60
_chemical_formula_moiety   'C3 H2 N4 O4'
_chemical_formula_sum   'H16 C24 N32 O32'
_cell_volume   1086.90847173
_cell_formula_units_Z   8
loop_
 _symmetry_equiv_pos_site_id
 _symmetry_equiv_pos_as_xyz
  1  'x, y, z'
  2  '-x, -y, -z'
  3  '-x+1/2, -y+1/2, z+1/2'
  4  'x+1/2, y+1/2, -z+1/2'
  5  'x+1/2, -y+1/2, -z'
  6  '-x+1/2, y+1/2, z'
  7  '-x, y, -z+1/2'
  8  'x, -y, z+1/2'
loop_
 _atom_site_type_symbol
 _atom_site_label
 _atom_site_symmetry_multiplicity
 _atom_site_fract_x
 _atom_site_fract_y
 _atom_site_fract_z
 _atom_site_occupancy
  H  H0  8  0.16922143  0.29669739  -0.10907535  1
  H  H1  8  0.17872043  0.19593820  0.38131283  1
  C  C2  8  0.18387031  0.31086392  0.09464567  1
  C  C3  8  0.19118820  0.18676330  0.59440200  1
  C  C4  8  0.21309655  0.18817737  0.46842703  1
  N  N5  8  0.10065477  0.31923408  0.13917200  1
  N  N6  8  0.11070652  0.81843397  0.14577656  1
  N  N7  8  0.20541882  0.31027944  -0.02936809  1
  N  N8  8  0.24450642  0.31197636  0.17324229  1
  O  O9  8  0.05023977  0.35805028  0.05967012  1
  O  O10  8  0.05736886  0.13587504  0.57280166  1
  O  O11  8  0.09092804  0.28870596  0.25213386  1
  O  O12  8  0.10249387  0.22185048  0.75901616  1
