###############################################################################################
#
# CIF file generated by modified CIFWriter class 
# in pymatgen (v2025.03.10) https://pymatgen.org/
#
###############################################################################################
data_MACE-OFF23(L)_5223231ad5359e
_symmetry_space_group_name_H-M   I4
_cell_length_a   14.34242495
_cell_length_b   14.34242495
_cell_length_c   8.60615406
_cell_angle_alpha   90.00000000
_cell_angle_beta   90.00000000
_cell_angle_gamma   90.00000000
_symmetry_Int_Tables_number   79
_chemical_formula_moiety   'C3 H2 N4 O4'
_chemical_formula_sum   'H16 C24 N32 O32'
_cell_volume   1770.33024072
_cell_formula_units_Z   8
loop_
 _symmetry_equiv_pos_site_id
 _symmetry_equiv_pos_as_xyz
  1  'x, y, z'
  2  '-y, x, z'
  3  '-x, -y, z'
  4  'y, -x, z'
  5  'x+1/2, y+1/2, z+1/2'
  6  '-y+1/2, x+1/2, z+1/2'
  7  '-x+1/2, -y+1/2, z+1/2'
  8  'y+1/2, -x+1/2, z+1/2'
loop_
 _atom_site_type_symbol
 _atom_site_label
 _atom_site_symmetry_multiplicity
 _atom_site_fract_x
 _atom_site_fract_y
 _atom_site_fract_z
 _atom_site_occupancy
  H  H0  8  0.03835048  0.74633906  0.27689539  1
  H  H1  8  0.11158909  0.76307751  0.00663177  1
  C  C2  8  0.13650599  0.79563400  0.11105757  1
  C  C3  8  0.14637261  0.21042549  0.13998209  1
  C  C4  8  0.14866097  0.83198583  0.35489319  1
  N  N5  8  0.09633204  0.78384954  0.25195065  1
  N  N6  8  0.10966198  0.27508429  0.02758590  1
  N  N7  8  0.12406286  0.21844659  0.29255156  1
  N  N8  8  0.12872376  0.82699831  0.52046714  1
  O  O9  8  0.04360273  0.32299736  0.06568536  1
  O  O10  8  0.05175876  0.79783138  0.55481747  1
  O  O11  8  0.14646362  0.27655263  -0.09973423  1
  O  O12  8  0.15026469  0.18954638  0.60928745  1
