###############################################################################################
#
# CIF file generated by modified CIFWriter class 
# in pymatgen (v2025.03.10) https://pymatgen.org/
#
###############################################################################################
data_MACE-OFF23(L)_526fa16e3d9f1a
_symmetry_space_group_name_H-M   Pcca
_cell_length_a   21.72329335
_cell_length_b   6.80402934
_cell_length_c   11.04514390
_cell_angle_alpha   90.00000000
_cell_angle_beta   90.00000000
_cell_angle_gamma   90.00000000
_symmetry_Int_Tables_number   54
_chemical_formula_moiety   'C3 H2 N4 O4'
_chemical_formula_sum   'H16 C24 N32 O32'
_cell_volume   1632.53771500
_cell_formula_units_Z   8
loop_
 _symmetry_equiv_pos_site_id
 _symmetry_equiv_pos_as_xyz
  1  'x, y, z'
  2  '-x, -y, -z'
  3  '-x+1/2, -y, z'
  4  'x+1/2, y, -z'
  5  'x+1/2, -y, -z+1/2'
  6  '-x+1/2, y, z+1/2'
  7  '-x, y, -z+1/2'
  8  'x, -y, z+1/2'
loop_
 _atom_site_type_symbol
 _atom_site_label
 _atom_site_symmetry_multiplicity
 _atom_site_fract_x
 _atom_site_fract_y
 _atom_site_fract_z
 _atom_site_occupancy
  H  H0  8  0.18461693  0.47382287  0.51982160  1
  H  H1  8  0.19747259  0.15575647  0.39837539  1
  C  C2  8  0.14549339  0.29333930  0.65527373  1
  C  C3  8  0.15078487  0.03057500  0.56120426  1
  C  C4  8  0.17820301  0.16575376  0.48739523  1
  N  N5  8  0.12989316  0.11044664  0.66641998  1
  N  N6  8  0.13714244  0.44249296  0.74919856  1
  N  N7  8  0.14343210  -0.17571074  0.53618192  1
  N  N8  8  0.17461996  0.33657858  0.55040118  1
  O  O9  8  0.09246783  0.43143359  0.81256717  1
  O  O10  8  0.10019010  -0.26218808  0.57814023  1
  O  O11  8  0.17774428  0.43405044  0.25495513  1
  O  O12  8  0.18331881  -0.25301349  0.47198331  1
