###############################################################################################
#
# CIF file generated by modified CIFWriter class 
# in pymatgen (v2025.03.10) https://pymatgen.org/
#
###############################################################################################
data_MACE-OFF23(L)_54616f5ce39ee10
_symmetry_space_group_name_H-M   Pnna
_cell_length_a   10.66352970
_cell_length_b   23.97888027
_cell_length_c   6.94630124
_cell_angle_alpha   90.00000000
_cell_angle_beta   90.00000000
_cell_angle_gamma   90.00000000
_symmetry_Int_Tables_number   52
_chemical_formula_moiety   'C3 H2 N4 O4'
_chemical_formula_sum   'H16 C24 N32 O32'
_cell_volume   1776.16576810
_cell_formula_units_Z   8
loop_
 _symmetry_equiv_pos_site_id
 _symmetry_equiv_pos_as_xyz
  1  'x, y, z'
  2  '-x, -y, -z'
  3  '-x+1/2, -y, z'
  4  'x+1/2, y, -z'
  5  'x, -y+1/2, -z+1/2'
  6  '-x, y+1/2, z+1/2'
  7  '-x+1/2, y+1/2, -z+1/2'
  8  'x+1/2, -y+1/2, z+1/2'
loop_
 _atom_site_type_symbol
 _atom_site_label
 _atom_site_symmetry_multiplicity
 _atom_site_fract_x
 _atom_site_fract_y
 _atom_site_fract_z
 _atom_site_occupancy
  H  H0  8  0.03195414  0.96740339  0.65113319  1
  H  H1  8  0.15458522  0.54442985  0.53550616  1
  C  C2  8  0.12146334  0.55272869  0.83660371  1
  C  C3  8  0.19617727  0.58014385  0.96572266  1
  C  C4  8  0.21032340  0.08623829  0.79485455  1
  N  N5  8  0.11409606  0.09349655  0.94179162  1
  N  N6  8  0.17306296  0.91413940  0.33044647  1
  N  N7  8  0.18419544  0.55716506  0.66709231  1
  N  N8  8  0.19840237  0.10138480  0.61653505  1
  O  O9  8  0.05089721  0.36519817  0.56094051  1
  O  O10  8  0.10494685  0.05487778  1.05641908  1
  O  O11  8  0.11072010  0.54856605  1.24515965  1
  O  O12  8  0.21551137  0.62538076  1.25384273  1
