###############################################################################################
#
# CIF file generated by modified CIFWriter class 
# in pymatgen (v2025.03.10) https://pymatgen.org/
#
###############################################################################################
data_MACE-OFF23(L)_56f4ea17970cd7c
_symmetry_space_group_name_H-M   P4_12_12
_cell_length_a   7.69817519
_cell_length_b   7.69817519
_cell_length_c   20.79098026
_cell_angle_alpha   90.00000000
_cell_angle_beta   90.00000000
_cell_angle_gamma   90.00000000
_symmetry_Int_Tables_number   92
_chemical_formula_moiety   'C3 H2 N4 O4'
_chemical_formula_sum   'H16 C24 N32 O32'
_cell_volume   1232.11302056
_cell_formula_units_Z   8
loop_
 _symmetry_equiv_pos_site_id
 _symmetry_equiv_pos_as_xyz
  1  'x, y, z'
  2  '-y+1/2, x+1/2, z+1/4'
  3  '-x, -y, z+1/2'
  4  'y+1/2, -x+1/2, z+3/4'
  5  'x+1/2, -y+1/2, -z+3/4'
  6  '-y, -x, -z+1/2'
  7  '-x+1/2, y+1/2, -z+1/4'
  8  'y, x, -z'
loop_
 _atom_site_type_symbol
 _atom_site_label
 _atom_site_symmetry_multiplicity
 _atom_site_fract_x
 _atom_site_fract_y
 _atom_site_fract_z
 _atom_site_occupancy
  H  H0  8  -0.04950554  0.71023161  0.49678654  1
  H  H1  8  0.05764625  0.40244509  0.49372751  1
  C  C2  8  -0.04322367  0.66281269  0.60342629  1
  C  C3  8  -0.02712629  0.63124242  0.53862592  1
  C  C4  8  0.05032077  0.41084713  0.59652824  1
  N  N5  8  -0.10233352  0.82050784  0.63365593  1
  N  N6  8  0.00566760  0.52503777  0.63941412  1
  N  N7  8  0.03231265  0.46681932  0.53528844  1
  N  N8  8  0.11961521  0.24157099  0.61141497  1
  O  O9  8  -0.11314363  0.82299403  0.69178872  1
  O  O10  8  0.05876316  1.14010424  0.90154474  1
  O  O11  8  0.13255157  0.20165145  0.66752943  1
  O  O12  8  0.15158976  0.16165551  0.43420949  1
