###############################################################################################
#
# CIF file generated by modified CIFWriter class 
# in pymatgen (v2025.03.10) https://pymatgen.org/
#
###############################################################################################
data_MACE-OFF23(L)_5789e960928dcb4
_symmetry_space_group_name_H-M   Pcca
_cell_length_a   13.83257258
_cell_length_b   5.97022660
_cell_length_c   14.05809283
_cell_angle_alpha   90.00000000
_cell_angle_beta   90.00000000
_cell_angle_gamma   90.00000000
_symmetry_Int_Tables_number   54
_chemical_formula_moiety   'C3 H2 N4 O4'
_chemical_formula_sum   'H16 C24 N32 O32'
_cell_volume   1160.96781402
_cell_formula_units_Z   8
loop_
 _symmetry_equiv_pos_site_id
 _symmetry_equiv_pos_as_xyz
  1  'x, y, z'
  2  '-x, -y, -z'
  3  '-x+1/2, -y, z'
  4  'x+1/2, y, -z'
  5  'x+1/2, -y, -z+1/2'
  6  '-x+1/2, y, z+1/2'
  7  '-x, y, -z+1/2'
  8  'x, -y, z+1/2'
loop_
 _atom_site_type_symbol
 _atom_site_label
 _atom_site_symmetry_multiplicity
 _atom_site_fract_x
 _atom_site_fract_y
 _atom_site_fract_z
 _atom_site_occupancy
  H  H0  8  0.18245496  0.25032852  0.06661351  1
  H  H1  8  0.22909275  0.25132333  0.40787370  1
  C  C2  8  0.09914291  0.74972363  0.00296632  1
  C  C3  8  0.17546796  0.24947249  0.62939143  1
  C  C4  8  0.19469197  0.25066264  0.47654946  1
  N  N5  8  0.01686377  0.25143056  0.44008569  1
  N  N6  8  0.08734589  0.24944680  0.59846863  1
  N  N7  8  0.20407869  0.24949807  0.72875587  1
  N  N8  8  0.24352128  0.25008419  0.56005584  1
  O  O9  8  -0.06348012  0.25046345  0.47815074  1
  O  O10  8  0.03073004  0.25338912  0.35597871  1
  O  O11  8  0.14271509  0.24795727  0.78903815  1
  O  O12  8  0.20831205  0.74884418  0.74308521  1
