###############################################################################################
#
# CIF file generated by modified CIFWriter class 
# in pymatgen (v2025.03.10) https://pymatgen.org/
#
###############################################################################################
data_MACE-OFF23(L)_57ca561bbf0b69d
_symmetry_space_group_name_H-M   P4_2bc
_cell_length_a   12.02295145
_cell_length_b   12.02295145
_cell_length_c   9.54465844
_cell_angle_alpha   90.00000000
_cell_angle_beta   90.00000000
_cell_angle_gamma   90.00000000
_symmetry_Int_Tables_number   106
_chemical_formula_moiety   'C3 H2 N4 O4'
_chemical_formula_sum   'H16 C24 N32 O32'
_cell_volume   1379.69337384
_cell_formula_units_Z   8
loop_
 _symmetry_equiv_pos_site_id
 _symmetry_equiv_pos_as_xyz
  1  'x, y, z'
  2  '-y, x, z+1/2'
  3  '-x, -y, z'
  4  'y, -x, z+1/2'
  5  '-x+1/2, y+1/2, z'
  6  'y+1/2, x+1/2, z+1/2'
  7  'x+1/2, -y+1/2, z'
  8  '-y+1/2, -x+1/2, z+1/2'
loop_
 _atom_site_type_symbol
 _atom_site_label
 _atom_site_symmetry_multiplicity
 _atom_site_fract_x
 _atom_site_fract_y
 _atom_site_fract_z
 _atom_site_occupancy
  H  H0  8  0.06030366  0.58459935  0.77658497  1
  H  H1  8  0.16790178  0.72641630  0.92160222  1
  C  C2  8  -0.02458026  0.69610105  0.31567668  1
  C  C3  8  0.08640296  0.79031413  0.43200014  1
  C  C4  8  0.14307346  0.69497325  0.39983403  1
  N  N5  8  -0.11870002  0.65908779  0.23445385  1
  N  N6  8  -0.01847401  0.79102947  0.38100344  1
  N  N7  8  0.06931275  0.63432479  0.32481020  1
  N  N8  8  0.11372176  0.13112272  1.00612132  1
  O  O9  8  -0.19608553  0.72116323  0.21958613  1
  O  O10  8  0.06619671  0.38812947  0.68145731  1
  O  O11  8  0.07522191  0.07733350  1.10002837  1
  O  O12  8  0.07957709  0.22206517  0.96743536  1
