###############################################################################################
#
# CIF file generated by modified CIFWriter class 
# in pymatgen (v2025.03.10) https://pymatgen.org/
#
###############################################################################################
data_MACE-OFF23(L)_58a1d7f4ba6244f
_symmetry_space_group_name_H-M   Pcca
_cell_length_a   35.99911624
_cell_length_b   3.32899649
_cell_length_c   10.53125142
_cell_angle_alpha   90.00000000
_cell_angle_beta   90.00000000
_cell_angle_gamma   90.00000000
_symmetry_Int_Tables_number   54
_chemical_formula_moiety   'C3 H2 N4 O4'
_chemical_formula_sum   'H16 C24 N32 O32'
_cell_volume   1262.07498235
_cell_formula_units_Z   8
loop_
 _symmetry_equiv_pos_site_id
 _symmetry_equiv_pos_as_xyz
  1  'x, y, z'
  2  '-x, -y, -z'
  3  '-x+1/2, -y, z'
  4  'x+1/2, y, -z'
  5  'x+1/2, -y, -z+1/2'
  6  '-x+1/2, y, z+1/2'
  7  '-x, y, -z+1/2'
  8  'x, -y, z+1/2'
loop_
 _atom_site_type_symbol
 _atom_site_label
 _atom_site_symmetry_multiplicity
 _atom_site_fract_x
 _atom_site_fract_y
 _atom_site_fract_z
 _atom_site_occupancy
  H  H0  8  0.07239880  0.47416478  1.11414749  1
  H  H1  8  0.13828607  0.19889883  1.13775534  1
  C  C2  8  0.08274343  0.44940418  0.91408529  1
  C  C3  8  0.12486455  0.26602584  1.04906876  1
  C  C4  8  0.13654193  0.22450997  0.92599975  1
  N  N5  8  0.04787725  0.39502931  0.36626829  1
  N  N6  8  0.08986478  0.41560991  1.03964209  1
  N  N7  8  0.11014515  0.33931554  0.84124341  1
  N  N8  8  0.17253056  0.07721136  0.88497142  1
  O  O9  8  0.02736156  0.23683138  0.44286304  1
  O  O10  8  0.04209901  0.42846240  0.25323329  1
  O  O11  8  0.17976425  0.09880203  0.77303033  1
  O  O12  8  0.19241278  -0.05838473  0.96751150  1
