###############################################################################################
#
# CIF file generated by modified CIFWriter class 
# in pymatgen (v2025.03.10) https://pymatgen.org/
#
###############################################################################################
data_MACE-OFF23(L)_5b296fd113bfe02
_symmetry_space_group_name_H-M   C222
_cell_length_a   14.94830647
_cell_length_b   5.71909289
_cell_length_c   18.26412555
_cell_angle_alpha   90.00000000
_cell_angle_beta   90.00000000
_cell_angle_gamma   90.00000000
_symmetry_Int_Tables_number   21
_chemical_formula_moiety   'C3 H2 N4 O4'
_chemical_formula_sum   'H16 C24 N32 O32'
_cell_volume   1561.41385160
_cell_formula_units_Z   8
loop_
 _symmetry_equiv_pos_site_id
 _symmetry_equiv_pos_as_xyz
  1  'x, y, z'
  2  '-x, -y, z'
  3  '-x, y, -z'
  4  'x, -y, -z'
  5  'x+1/2, y+1/2, z'
  6  '-x+1/2, -y+1/2, z'
  7  '-x+1/2, y+1/2, -z'
  8  'x+1/2, -y+1/2, -z'
loop_
 _atom_site_type_symbol
 _atom_site_label
 _atom_site_symmetry_multiplicity
 _atom_site_fract_x
 _atom_site_fract_y
 _atom_site_fract_z
 _atom_site_occupancy
  H  H0  8  0.11526633  -0.20280494  0.60430915  1
  H  H1  8  0.13212837  -0.30524755  0.74026215  1
  C  C2  8  0.12205739  -0.08005157  0.64852013  1
  C  C3  8  0.12974378  0.15770805  0.64845614  1
  C  C4  8  0.14183286  0.06211470  0.75778538  1
  N  N5  8  0.13078474  -0.14024178  0.71996837  1
  N  N6  8  0.13317479  0.30094740  0.58384812  1
  N  N7  8  0.14235933  0.24783391  0.71661598  1
  N  N8  8  0.14917226  0.06419126  0.83714609  1
  O  O9  8  0.09401715  0.23192413  0.53018711  1
  O  O10  8  0.15112896  -0.12592451  0.86655675  1
  O  O11  8  0.15150922  0.25338669  0.86651666  1
  O  O12  8  0.17705623  0.48068549  0.58777470  1
