###############################################################################################
#
# CIF file generated by modified CIFWriter class 
# in pymatgen (v2025.03.10) https://pymatgen.org/
#
###############################################################################################
data_MACE-OFF23(L)_5ffd5d5d9cce03b
_symmetry_space_group_name_H-M   C2/c
_cell_length_a   6.41131144
_cell_length_b   13.88625893
_cell_length_c   13.43444104
_cell_angle_alpha   90.00000000
_cell_angle_beta   81.88451130
_cell_angle_gamma   90.00000000
_symmetry_Int_Tables_number   15
_chemical_formula_moiety   'C3 H2 N4 O4'
_chemical_formula_sum   'H16 C24 N32 O32'
_cell_volume   1184.07873805
_cell_formula_units_Z   8
loop_
 _symmetry_equiv_pos_site_id
 _symmetry_equiv_pos_as_xyz
  1  'x, y, z'
  2  '-x, -y, -z'
  3  '-x, y, -z+1/2'
  4  'x, -y, z+1/2'
  5  'x+1/2, y+1/2, z'
  6  '-x+1/2, -y+1/2, -z'
  7  '-x+1/2, y+1/2, -z+1/2'
  8  'x+1/2, -y+1/2, z+1/2'
loop_
 _atom_site_type_symbol
 _atom_site_label
 _atom_site_symmetry_multiplicity
 _atom_site_fract_x
 _atom_site_fract_y
 _atom_site_fract_z
 _atom_site_occupancy
  H  H0  8  0.18172798  0.19867216  0.81038956  1
  H  H1  8  0.21488155  0.14611762  0.28695161  1
  C  C2  8  0.08867487  0.25125968  0.40688868  1
  C  C3  8  0.18234677  0.62640993  0.82426370  1
  C  C4  8  0.18597221  0.21782922  0.31576861  1
  N  N5  8  -0.00284023  0.19299024  0.49053277  1
  N  N6  8  0.08611259  0.65128069  0.91185523  1
  N  N7  8  0.22045343  0.52811028  0.78944973  1
  N  N8  8  0.24560928  0.70144340  0.76272790  1
  O  O9  8  -0.07793293  0.23586760  0.56756570  1
  O  O10  8  0.00191331  0.10692354  0.48085965  1
  O  O11  8  0.16289726  0.46323226  0.84604361  1
  O  O12  8  0.19221240  0.01927800  0.79712198  1
