###############################################################################################
#
# CIF file generated by modified CIFWriter class 
# in pymatgen (v2025.03.10) https://pymatgen.org/
#
###############################################################################################
data_MACE-OFF23(L)_61e2bb4029eaa8c
_symmetry_space_group_name_H-M   C2/c
_cell_length_a   10.09600803
_cell_length_b   10.56911886
_cell_length_c   11.05827036
_cell_angle_alpha   90.00000000
_cell_angle_beta   86.80344005
_cell_angle_gamma   90.00000000
_symmetry_Int_Tables_number   15
_chemical_formula_moiety   'C3 H2 N4 O4'
_chemical_formula_sum   'H16 C24 N32 O32'
_cell_volume   1178.14687103
_cell_formula_units_Z   8
loop_
 _symmetry_equiv_pos_site_id
 _symmetry_equiv_pos_as_xyz
  1  'x, y, z'
  2  '-x, -y, -z'
  3  '-x, y, -z+1/2'
  4  'x, -y, z+1/2'
  5  'x+1/2, y+1/2, z'
  6  '-x+1/2, -y+1/2, -z'
  7  '-x+1/2, y+1/2, -z+1/2'
  8  'x+1/2, -y+1/2, z+1/2'
loop_
 _atom_site_type_symbol
 _atom_site_label
 _atom_site_symmetry_multiplicity
 _atom_site_fract_x
 _atom_site_fract_y
 _atom_site_fract_z
 _atom_site_occupancy
  H  H0  8  0.15896443  0.40050747  0.12930849  1
  H  H1  8  0.17904987  0.64063866  0.13099718  1
  C  C2  8  0.11127843  0.10849825  0.37142567  1
  C  C3  8  0.11818628  -0.08735258  0.37167090  1
  C  C4  8  0.24919557  1.04719618  0.87032748  1
  N  N5  8  0.03345872  0.01099059  0.37290983  1
  N  N6  8  0.06618147  0.76434399  0.87317744  1
  N  N7  8  0.07112890  1.21368809  0.87115336  1
  N  N8  8  0.24201161  0.92091519  0.87030872  1
  O  O9  8  -0.05420787  0.74946198  0.87565874  1
  O  O10  8  -0.05032581  1.22944919  0.87885472  1
  O  O11  8  0.14802384  0.68008776  0.87262381  1
  O  O12  8  0.15095482  1.29932338  0.86299034  1
