###############################################################################################
#
# CIF file generated by modified CIFWriter class 
# in pymatgen (v2025.03.10) https://pymatgen.org/
#
###############################################################################################
data_MACE-OFF23(L)_6357983d1e6f2e9
_symmetry_space_group_name_H-M   P4_32_12
_cell_length_a   8.91992440
_cell_length_b   8.91992440
_cell_length_c   16.97853965
_cell_angle_alpha   90.00000000
_cell_angle_beta   90.00000000
_cell_angle_gamma   90.00000000
_symmetry_Int_Tables_number   96
_chemical_formula_moiety   'C3 H2 N4 O4'
_chemical_formula_sum   'H16 C24 N32 O32'
_cell_volume   1350.89837927
_cell_formula_units_Z   8
loop_
 _symmetry_equiv_pos_site_id
 _symmetry_equiv_pos_as_xyz
  1  'x, y, z'
  2  '-y+1/2, x+1/2, z+3/4'
  3  '-x, -y, z+1/2'
  4  'y+1/2, -x+1/2, z+1/4'
  5  'x+1/2, -y+1/2, -z+1/4'
  6  '-y, -x, -z+1/2'
  7  '-x+1/2, y+1/2, -z+3/4'
  8  'y, x, -z'
loop_
 _atom_site_type_symbol
 _atom_site_label
 _atom_site_symmetry_multiplicity
 _atom_site_fract_x
 _atom_site_fract_y
 _atom_site_fract_z
 _atom_site_occupancy
  H  H0  8  0.06594321  0.79583135  0.93753699  1
  H  H1  8  0.15551199  0.67152508  0.14182550  1
  C  C2  8  -0.03324302  0.46384133  0.89035957  1
  C  C3  8  0.05892125  0.67839670  0.92493981  1
  C  C4  8  0.06574581  0.33678873  0.17664644  1
  N  N5  8  -0.14066533  0.64715345  0.11488363  1
  N  N6  8  -0.06911808  0.39429366  0.15525086  1
  N  N7  8  -0.06818737  0.60996068  0.90009420  1
  N  N8  8  0.08301407  0.17970286  0.19611907  1
  O  O9  8  -0.12676038  0.22660320  0.87606496  1
  O  O10  8  -0.08715467  0.75848886  0.08430282  1
  O  O11  8  -0.00889864  0.09261743  0.17089375  1
  O  O12  8  0.14648083  0.19178395  0.76403099  1
