###############################################################################################
#
# CIF file generated by modified CIFWriter class 
# in pymatgen (v2025.03.10) https://pymatgen.org/
#
###############################################################################################
data_MACE-OFF23(L)_639847c64eae892
_symmetry_space_group_name_H-M   C2/c
_cell_length_a   13.69676453
_cell_length_b   10.67552633
_cell_length_c   8.30108879
_cell_angle_alpha   90.00000000
_cell_angle_beta   71.74073912
_cell_angle_gamma   90.00000000
_symmetry_Int_Tables_number   15
_chemical_formula_moiety   'C3 H2 N4 O4'
_chemical_formula_sum   'H16 C24 N32 O32'
_cell_volume   1152.67063543
_cell_formula_units_Z   8
loop_
 _symmetry_equiv_pos_site_id
 _symmetry_equiv_pos_as_xyz
  1  'x, y, z'
  2  '-x, -y, -z'
  3  '-x, y, -z+1/2'
  4  'x, -y, z+1/2'
  5  'x+1/2, y+1/2, z'
  6  '-x+1/2, -y+1/2, -z'
  7  '-x+1/2, y+1/2, -z+1/2'
  8  'x+1/2, -y+1/2, z+1/2'
loop_
 _atom_site_type_symbol
 _atom_site_label
 _atom_site_symmetry_multiplicity
 _atom_site_fract_x
 _atom_site_fract_y
 _atom_site_fract_z
 _atom_site_occupancy
  H  H0  8  0.17476045  0.30327681  0.70043450  1
  H  H1  8  0.17837565  0.80497399  0.67391512  1
  C  C2  8  0.19054429  0.10420856  0.69603042  1
  C  C3  8  0.19284295  0.40338035  0.19383468  1
  C  C4  8  0.21244831  0.27816600  0.20592553  1
  N  N5  8  0.11271634  0.07403748  0.61759724  1
  N  N6  8  0.11862673  0.54412840  0.62390267  1
  N  N7  8  0.21145661  0.22469262  0.72331943  1
  N  N8  8  0.24643993  0.02282565  0.74418627  1
  O  O9  8  0.06922407  0.61617504  0.56634306  1
  O  O10  8  0.06979458  0.16166704  0.57503097  1
  O  O11  8  0.09595937  -0.03592828  0.59927727  1
  O  O12  8  0.10905427  0.43035036  0.62372700  1
