###############################################################################################
#
# CIF file generated by modified CIFWriter class 
# in pymatgen (v2025.03.10) https://pymatgen.org/
#
###############################################################################################
data_MACE-OFF23(L)_64380a98b4cd98c
_symmetry_space_group_name_H-M   Pnnm
_cell_length_a   12.97749296
_cell_length_b   5.93733814
_cell_length_c   25.25960484
_cell_angle_alpha   90.00000000
_cell_angle_beta   90.00000000
_cell_angle_gamma   90.00000000
_symmetry_Int_Tables_number   58
_chemical_formula_moiety   'C3 H2 N4 O4'
_chemical_formula_sum   'H16 C24 N32 O32'
_cell_volume   1946.29711002
_cell_formula_units_Z   8
loop_
 _symmetry_equiv_pos_site_id
 _symmetry_equiv_pos_as_xyz
  1  'x, y, z'
  2  '-x, -y, -z'
  3  '-x, -y, z'
  4  'x, y, -z'
  5  '-x+1/2, y+1/2, -z+1/2'
  6  'x+1/2, -y+1/2, z+1/2'
  7  'x+1/2, -y+1/2, -z+1/2'
  8  '-x+1/2, y+1/2, z+1/2'
loop_
 _atom_site_type_symbol
 _atom_site_label
 _atom_site_symmetry_multiplicity
 _atom_site_fract_x
 _atom_site_fract_y
 _atom_site_fract_z
 _atom_site_occupancy
  H  H0  8  0.03415869  0.78705204  0.18674461  1
  H  H1  8  0.08022599  0.43220924  0.13138889  1
  C  C2  8  0.13176052  0.56334296  0.14329272  1
  C  C3  8  0.19199675  0.86914017  0.17801123  1
  C  C4  8  0.23555136  0.58596173  0.13577134  1
  N  N5  8  0.10385960  0.75022469  0.17086708  1
  N  N6  8  0.18867707  1.08418760  0.20486193  1
  N  N7  8  0.20092471  -0.07756708  0.39172931  1
  N  N8  8  0.22674798  0.27657680  0.34243875  1
  O  O9  8  0.10252269  1.15650899  0.21537066  1
  O  O10  8  0.11099296  -0.03827786  0.39750038  1
  O  O11  8  0.23161868  0.67835175  0.28516071  1
  O  O12  8  0.24672897  -0.24603082  0.40691047  1
