###############################################################################################
#
# CIF file generated by modified CIFWriter class 
# in pymatgen (v2025.03.10) https://pymatgen.org/
#
###############################################################################################
data_MACE-OFF23(L)_645d02b32851a5f
_symmetry_space_group_name_H-M   Pbcn
_cell_length_a   9.50674104
_cell_length_b   12.40739871
_cell_length_c   9.91370104
_cell_angle_alpha   90.00000000
_cell_angle_beta   90.00000000
_cell_angle_gamma   90.00000000
_symmetry_Int_Tables_number   60
_chemical_formula_moiety   'C3 H2 N4 O4'
_chemical_formula_sum   'H16 C24 N32 O32'
_cell_volume   1169.35996351
_cell_formula_units_Z   8
loop_
 _symmetry_equiv_pos_site_id
 _symmetry_equiv_pos_as_xyz
  1  'x, y, z'
  2  '-x, -y, -z'
  3  '-x+1/2, -y+1/2, z+1/2'
  4  'x+1/2, y+1/2, -z+1/2'
  5  'x+1/2, -y+1/2, -z'
  6  '-x+1/2, y+1/2, z'
  7  '-x, y, -z+1/2'
  8  'x, -y, z+1/2'
loop_
 _atom_site_type_symbol
 _atom_site_label
 _atom_site_symmetry_multiplicity
 _atom_site_fract_x
 _atom_site_fract_y
 _atom_site_fract_z
 _atom_site_occupancy
  H  H0  8  0.10666810  0.28001413  0.72241417  1
  H  H1  8  0.20592325  0.07957532  0.24328473  1
  C  C2  8  0.07072801  0.36164153  0.52262557  1
  C  C3  8  0.12901002  0.33892785  0.64636187  1
  C  C4  8  0.23503998  0.46898388  0.54514045  1
  N  N5  8  -0.05209540  0.30936919  0.46761484  1
  N  N6  8  0.13913288  0.44253148  0.45791357  1
  N  N7  8  0.15901033  -0.05097238  0.02716824  1
  N  N8  8  0.23436720  0.41004254  0.65920526  1
  O  O9  8  -0.10672643  0.24000703  0.53732887  1
  O  O10  8  -0.09675313  0.33705757  0.35833569  1
  O  O11  8  0.07502859  -0.06153860  0.11817909  1
  O  O12  8  0.15977679  -0.10427657  -0.07593712  1
