###############################################################################################
#
# CIF file generated by modified CIFWriter class 
# in pymatgen (v2025.03.10) https://pymatgen.org/
#
###############################################################################################
data_MACE-OFF23(L)_6645085812da6a0
_symmetry_space_group_name_H-M   P4_222
_cell_length_a   9.54665815
_cell_length_b   9.54665815
_cell_length_c   17.58405775
_cell_angle_alpha   90.00000000
_cell_angle_beta   90.00000000
_cell_angle_gamma   90.00000000
_symmetry_Int_Tables_number   93
_chemical_formula_moiety   'C3 H2 N4 O4'
_chemical_formula_sum   'H16 C24 N32 O32'
_cell_volume   1602.58784332
_cell_formula_units_Z   8
loop_
 _symmetry_equiv_pos_site_id
 _symmetry_equiv_pos_as_xyz
  1  'x, y, z'
  2  '-y, x, z+1/2'
  3  '-x, -y, z'
  4  'y, -x, z+1/2'
  5  'x, -y, -z'
  6  '-y, -x, -z+1/2'
  7  '-x, y, -z'
  8  'y, x, -z+1/2'
loop_
 _atom_site_type_symbol
 _atom_site_label
 _atom_site_symmetry_multiplicity
 _atom_site_fract_x
 _atom_site_fract_y
 _atom_site_fract_z
 _atom_site_occupancy
  H  H0  8  0.13027688  0.35592542  0.76083205  1
  H  H1  8  0.19038401  0.61797955  0.75794913  1
  C  C2  8  0.18432786  0.41255562  0.80484982  1
  C  C3  8  0.23827462  0.62803489  0.12634917  1
  C  C4  8  0.29014130  0.41842895  0.13573197  1
  N  N5  8  0.21699233  0.44909701  0.19958729  1
  N  N6  8  0.22402517  0.23371294  0.90714818  1
  N  N7  8  0.27984497  0.64978015  0.62549375  1
  N  N8  8  0.30476975  0.47688362  0.91044823  1
  O  O9  8  0.13603494  0.78199448  0.36260259  1
  O  O10  8  0.18670281  0.29778936  0.33505265  1
  O  O11  8  0.21561334  0.22589310  0.97544068  1
  O  O12  8  0.26535801  0.44711586  0.41698869  1
