###############################################################################################
#
# CIF file generated by modified CIFWriter class 
# in pymatgen (v2025.03.10) https://pymatgen.org/
#
###############################################################################################
data_MACE-OFF23(L)_6a28694e60f4c53
_symmetry_space_group_name_H-M   P4_2/n
_cell_length_a   14.85849731
_cell_length_b   14.85849731
_cell_length_c   5.30682088
_cell_angle_alpha   90.00000000
_cell_angle_beta   90.00000000
_cell_angle_gamma   90.00000000
_symmetry_Int_Tables_number   86
_chemical_formula_moiety   'C3 H2 N4 O4'
_chemical_formula_sum   'H16 C24 N32 O32'
_cell_volume   1171.61307304
_cell_formula_units_Z   8
loop_
 _symmetry_equiv_pos_site_id
 _symmetry_equiv_pos_as_xyz
  1  'x, y, z'
  2  '-y+1/2, x+1/2, z+1/2'
  3  '-x, -y, z'
  4  'y+1/2, -x+1/2, z+1/2'
  5  '-x+1/2, -y+1/2, -z+1/2'
  6  'y, -x, -z'
  7  'x+1/2, y+1/2, -z+1/2'
  8  '-y, x, -z'
loop_
 _atom_site_type_symbol
 _atom_site_label
 _atom_site_symmetry_multiplicity
 _atom_site_fract_x
 _atom_site_fract_y
 _atom_site_fract_z
 _atom_site_occupancy
  H  H0  8  0.14236014  0.15616203  0.76879066  1
  H  H1  8  0.14636617  0.32409423  0.83067479  1
  C  C2  8  0.14468594  0.18509713  0.37437316  1
  C  C3  8  0.14609589  0.29174898  0.64987719  1
  C  C4  8  0.14644830  0.32372218  0.40768639  1
  N  N5  8  0.08274201  0.64820077  0.83483164  1
  N  N6  8  0.09471520  0.86122898  0.72238405  1
  N  N7  8  0.14504889  0.25683181  0.23456142  1
  N  N8  8  0.14574947  0.20150924  0.62421581  1
  O  O9  8  0.02741116  0.63451488  0.99878900  1
  O  O10  8  0.03452473  0.86711134  0.57023558  1
  O  O11  8  0.06475749  0.66546985  0.61626259  1
  O  O12  8  0.08403173  0.85942899  0.95096401  1
