###############################################################################################
#
# CIF file generated by modified CIFWriter class 
# in pymatgen (v2025.03.10) https://pymatgen.org/
#
###############################################################################################
data_MACE-OFF23(L)_6acdf16ff4fcc68
_symmetry_space_group_name_H-M   P-42c
_cell_length_a   10.42892745
_cell_length_b   10.42892745
_cell_length_c   11.72794964
_cell_angle_alpha   90.00000000
_cell_angle_beta   90.00000000
_cell_angle_gamma   90.00000000
_symmetry_Int_Tables_number   112
_chemical_formula_moiety   'C3 H2 N4 O4'
_chemical_formula_sum   'H16 C24 N32 O32'
_cell_volume   1275.56144760
_cell_formula_units_Z   8
loop_
 _symmetry_equiv_pos_site_id
 _symmetry_equiv_pos_as_xyz
  1  'x, y, z'
  2  'y, -x, -z'
  3  '-x, -y, z'
  4  '-y, x, -z'
  5  'x, -y, -z+1/2'
  6  'y, x, z+1/2'
  7  '-x, y, -z+1/2'
  8  '-y, -x, z+1/2'
loop_
 _atom_site_type_symbol
 _atom_site_label
 _atom_site_symmetry_multiplicity
 _atom_site_fract_x
 _atom_site_fract_y
 _atom_site_fract_z
 _atom_site_occupancy
  H  H0  8  0.00147472  0.15514098  0.63575442  1
  H  H1  8  0.01200862  0.39553381  0.62505508  1
  C  C2  8  0.08833279  0.21031395  0.62962785  1
  C  C3  8  0.17506224  0.21448217  0.12054332  1
  C  C4  8  0.21607860  0.37353883  0.61548748  1
  N  N5  8  0.04527779  0.26117486  0.11764925  1
  N  N6  8  0.09147848  0.33970241  0.62687095  1
  N  N7  8  0.25490452  0.49303650  0.88903434  1
  N  N8  8  0.27690811  0.29421407  0.11138893  1
  O  O9  8  -0.04040157  0.18092558  0.12462230  1
  O  O10  8  0.02722219  0.37483439  0.10706191  1
  O  O11  8  0.16946940  0.41276247  0.87487948  1
  O  O12  8  0.36566104  0.46951159  0.90330439  1
