###############################################################################################
#
# CIF file generated by modified CIFWriter class 
# in pymatgen (v2025.03.10) https://pymatgen.org/
#
###############################################################################################
data_MACE-OFF23(L)_6e4739f2fb9acf7
_symmetry_space_group_name_H-M   P4/n
_cell_length_a   15.37252527
_cell_length_b   15.37252527
_cell_length_c   5.60285873
_cell_angle_alpha   90.00000000
_cell_angle_beta   90.00000000
_cell_angle_gamma   90.00000000
_symmetry_Int_Tables_number   85
_chemical_formula_moiety   'C3 H2 N4 O4'
_chemical_formula_sum   'H16 C24 N32 O32'
_cell_volume   1324.03694482
_cell_formula_units_Z   8
loop_
 _symmetry_equiv_pos_site_id
 _symmetry_equiv_pos_as_xyz
  1  'x, y, z'
  2  '-y+1/2, x+1/2, z'
  3  '-x, -y, z'
  4  'y+1/2, -x+1/2, z'
  5  '-x+1/2, -y+1/2, -z'
  6  'y, -x, -z'
  7  'x+1/2, y+1/2, -z'
  8  '-y, x, -z'
loop_
 _atom_site_type_symbol
 _atom_site_label
 _atom_site_symmetry_multiplicity
 _atom_site_fract_x
 _atom_site_fract_y
 _atom_site_fract_z
 _atom_site_occupancy
  H  H0  8  0.06236880  0.69962113  0.23952513  1
  H  H1  8  0.20990215  0.27111504  0.23956471  1
  C  C2  8  0.06329329  0.83641760  0.24849807  1
  C  C3  8  0.14753993  0.19729438  0.75253898  1
  C  C4  8  0.18463487  0.76399504  0.24360867  1
  N  N5  8  -0.03016177  0.84889954  0.24981541  1
  N  N6  8  0.09701777  0.75521302  0.24462088  1
  N  N7  8  0.10278771  0.12172129  0.74960725  1
  N  N8  8  0.10318036  0.27997500  0.75425185  1
  O  O9  8  -0.07358052  0.78143055  0.25023137  1
  O  O10  8  -0.05866525  0.92113953  0.25021504  1
  O  O11  8  0.02447126  0.28119376  0.75188977  1
  O  O12  8  0.14957348  0.34465128  0.75867119  1
