###############################################################################################
#
# CIF file generated by modified CIFWriter class 
# in pymatgen (v2025.03.10) https://pymatgen.org/
#
###############################################################################################
data_MACE-OFF23(L)_71dfe71742e42c8
_symmetry_space_group_name_H-M   P4_2/m
_cell_length_a   8.20113537
_cell_length_b   8.20113537
_cell_length_c   29.10996741
_cell_angle_alpha   90.00000000
_cell_angle_beta   90.00000000
_cell_angle_gamma   90.00000000
_symmetry_Int_Tables_number   84
_chemical_formula_moiety   'C3 H2 N4 O4'
_chemical_formula_sum   'H16 C24 N32 O32'
_cell_volume   1957.89627767
_cell_formula_units_Z   8
loop_
 _symmetry_equiv_pos_site_id
 _symmetry_equiv_pos_as_xyz
  1  'x, y, z'
  2  '-x, -y, -z'
  3  '-y, x, z+1/2'
  4  'y, -x, -z+1/2'
  5  '-x, -y, z'
  6  'x, y, -z'
  7  'y, -x, z+1/2'
  8  '-y, x, -z+1/2'
loop_
 _atom_site_type_symbol
 _atom_site_label
 _atom_site_symmetry_multiplicity
 _atom_site_fract_x
 _atom_site_fract_y
 _atom_site_fract_z
 _atom_site_occupancy
  H  H0  8  0.27928291  0.36606788  0.36738114  1
  H  H1  8  0.36498171  0.45168839  0.71395350  1
  C  C2  8  0.06990656  0.27038666  0.66387186  1
  C  C3  8  0.12931200  0.33062198  0.26888468  1
  C  C4  8  0.25649685  0.38692196  0.29487166  1
  N  N5  8  -0.00517185  0.21171291  0.37812791  1
  N  N6  8  0.01211466  0.25800183  0.29467252  1
  N  N7  8  0.11779480  0.34601315  0.21967610  1
  N  N8  8  0.21537519  0.34737397  0.33836481  1
  O  O9  8  -0.12952828  0.13401472  0.37504304  1
  O  O10  8  -0.00942033  0.31065101  0.20126804  1
  O  O11  8  0.06558777  0.24777092  0.58660586  1
  O  O12  8  0.23833707  0.39732204  0.19983516  1
