###############################################################################################
#
# CIF file generated by modified CIFWriter class 
# in pymatgen (v2025.03.10) https://pymatgen.org/
#
###############################################################################################
data_MACE-OFF23(L)_743f8771c9fdb5c
_symmetry_space_group_name_H-M   P-42_1m
_cell_length_a   14.24897648
_cell_length_b   14.24897648
_cell_length_c   8.36457019
_cell_angle_alpha   90.00000000
_cell_angle_beta   90.00000000
_cell_angle_gamma   90.00000000
_symmetry_Int_Tables_number   113
_chemical_formula_moiety   'C3 H2 N4 O4'
_chemical_formula_sum   'H16 C24 N32 O32'
_cell_volume   1698.28654533
_cell_formula_units_Z   8
loop_
 _symmetry_equiv_pos_site_id
 _symmetry_equiv_pos_as_xyz
  1  'x, y, z'
  2  'y, -x, -z'
  3  '-x, -y, z'
  4  '-y, x, -z'
  5  'x+1/2, -y+1/2, -z'
  6  'y+1/2, x+1/2, z'
  7  '-x+1/2, y+1/2, -z'
  8  '-y+1/2, -x+1/2, z'
loop_
 _atom_site_type_symbol
 _atom_site_label
 _atom_site_symmetry_multiplicity
 _atom_site_fract_x
 _atom_site_fract_y
 _atom_site_fract_z
 _atom_site_occupancy
  H  H0  8  0.10487794  0.25868103  0.95467287  1
  H  H1  8  0.13101229  0.76994092  -0.00623775  1
  C  C2  8  0.06737225  0.17769592  0.75319175  1
  C  C3  8  0.06801555  0.84078967  0.20626536  1
  C  C4  8  0.13257524  0.81958247  0.09048386  1
  N  N5  8  -0.02498539  0.80016123  0.21543631  1
  N  N6  8  -0.00557649  0.23968020  0.69305665  1
  N  N7  8  0.08899456  0.09617334  0.69592100  1
  N  N8  8  0.11913435  0.20388157  0.88177849  1
  O  O9  8  -0.08874593  0.84815980  0.26329539  1
  O  O10  8  -0.03407007  0.29816936  0.78825500  1
  O  O11  8  -0.03335199  0.71999893  0.16413018  1
  O  O12  8  -0.03207199  0.22923203  0.55777601  1
