###############################################################################################
#
# CIF file generated by modified CIFWriter class 
# in pymatgen (v2025.03.10) https://pymatgen.org/
#
###############################################################################################
data_MACE-OFF23(L)_7485ba5c27c7f33
_symmetry_space_group_name_H-M   C2/c
_cell_length_a   16.93686368
_cell_length_b   6.84822001
_cell_length_c   10.21155317
_cell_angle_alpha   90.00000000
_cell_angle_beta   105.52612418
_cell_angle_gamma   90.00000000
_symmetry_Int_Tables_number   15
_chemical_formula_moiety   'C3 H2 N4 O4'
_chemical_formula_sum   'H16 C24 N32 O32'
_cell_volume   1141.19024884
_cell_formula_units_Z   8
loop_
 _symmetry_equiv_pos_site_id
 _symmetry_equiv_pos_as_xyz
  1  'x, y, z'
  2  '-x, -y, -z'
  3  '-x, y, -z+1/2'
  4  'x, -y, z+1/2'
  5  'x+1/2, y+1/2, z'
  6  '-x+1/2, -y+1/2, -z'
  7  '-x+1/2, y+1/2, -z+1/2'
  8  'x+1/2, -y+1/2, z+1/2'
loop_
 _atom_site_type_symbol
 _atom_site_label
 _atom_site_symmetry_multiplicity
 _atom_site_fract_x
 _atom_site_fract_y
 _atom_site_fract_z
 _atom_site_occupancy
  H  H0  8  0.10594520  0.47783244  0.30977446  1
  H  H1  8  0.16303444  0.81677607  0.29980106  1
  C  C2  8  0.09784792  0.46063864  0.09728372  1
  C  C3  8  0.14528360  0.28229320  0.71512060  1
  C  C4  8  0.14761127  0.26565533  0.58241542  1
  N  N5  8  0.06093180  0.27070503  0.06543744  1
  N  N6  8  0.11306302  0.53971221  0.22235516  1
  N  N7  8  0.11755063  0.57342102  0.00847401  1
  N  N8  8  0.17865133  0.89482903  0.02162957  1
  O  O9  8  0.04519979  0.18000183  0.15703774  1
  O  O10  8  0.04724546  0.21668987  -0.05248042  1
  O  O11  8  0.17634983  0.88286681  -0.09817496  1
  O  O12  8  0.20637211  1.03460698  0.09326669  1
