###############################################################################################
#
# CIF file generated by modified CIFWriter class 
# in pymatgen (v2025.03.10) https://pymatgen.org/
#
###############################################################################################
data_MACE-OFF23(L)_7527ef691eb71e0
_symmetry_space_group_name_H-M   Pbcn
_cell_length_a   6.15184247
_cell_length_b   17.21556378
_cell_length_c   10.54790461
_cell_angle_alpha   90.00000000
_cell_angle_beta   90.00000000
_cell_angle_gamma   90.00000000
_symmetry_Int_Tables_number   60
_chemical_formula_moiety   'C3 H2 N4 O4'
_chemical_formula_sum   'H16 C24 N32 O32'
_cell_volume   1117.10153584
_cell_formula_units_Z   8
loop_
 _symmetry_equiv_pos_site_id
 _symmetry_equiv_pos_as_xyz
  1  'x, y, z'
  2  '-x, -y, -z'
  3  '-x+1/2, -y+1/2, z+1/2'
  4  'x+1/2, y+1/2, -z+1/2'
  5  'x+1/2, -y+1/2, -z'
  6  '-x+1/2, y+1/2, z'
  7  '-x, y, -z+1/2'
  8  'x, -y, z+1/2'
loop_
 _atom_site_type_symbol
 _atom_site_label
 _atom_site_symmetry_multiplicity
 _atom_site_fract_x
 _atom_site_fract_y
 _atom_site_fract_z
 _atom_site_occupancy
  H  H0  8  0.20936819  0.15884170  0.22616094  1
  H  H1  8  0.23367906  0.48337606  0.78978753  1
  C  C2  8  0.19970311  0.11767528  0.03702351  1
  C  C3  8  0.24099663  0.49853011  0.57978532  1
  C  C4  8  0.24610901  0.46178658  0.69452653  1
  N  N5  8  0.13256622  0.18932769  -0.02497445  1
  N  N6  8  0.21072771  0.41933563  0.06103952  1
  N  N7  8  0.21642322  0.11379849  0.16494146  1
  N  N8  8  0.22473158  0.05108888  -0.01882197  1
  O  O9  8  0.06898337  0.24015723  0.04610564  1
  O  O10  8  0.13911116  0.19186673  -0.13907428  1
  O  O11  8  0.17533287  0.38028632  0.15325426  1
  O  O12  8  0.22178888  0.39448023  -0.04807446  1
