###############################################################################################
#
# CIF file generated by modified CIFWriter class 
# in pymatgen (v2025.03.10) https://pymatgen.org/
#
###############################################################################################
data_MACE-OFF23(L)_7be2288ec589842
_symmetry_space_group_name_H-M   P4/n
_cell_length_a   11.67201060
_cell_length_b   11.67201060
_cell_length_c   9.53662585
_cell_angle_alpha   90.00000000
_cell_angle_beta   90.00000000
_cell_angle_gamma   90.00000000
_symmetry_Int_Tables_number   85
_chemical_formula_moiety   'C3 H2 N4 O4'
_chemical_formula_sum   'H16 C24 N32 O32'
_cell_volume   1299.23015157
_cell_formula_units_Z   8
loop_
 _symmetry_equiv_pos_site_id
 _symmetry_equiv_pos_as_xyz
  1  'x, y, z'
  2  '-y+1/2, x+1/2, z'
  3  '-x, -y, z'
  4  'y+1/2, -x+1/2, z'
  5  '-x+1/2, -y+1/2, -z'
  6  'y, -x, -z'
  7  'x+1/2, y+1/2, -z'
  8  '-y, x, -z'
loop_
 _atom_site_type_symbol
 _atom_site_label
 _atom_site_symmetry_multiplicity
 _atom_site_fract_x
 _atom_site_fract_y
 _atom_site_fract_z
 _atom_site_occupancy
  H  H0  8  -0.03227448  0.65149844  0.85818955  1
  H  H1  8  0.01819753  0.69153282  0.59766596  1
  C  C2  8  0.05891276  0.72858024  0.68823704  1
  C  C3  8  0.09705592  0.76965356  0.90588334  1
  C  C4  8  0.14099738  0.81137217  0.70092685  1
  N  N5  8  0.03306725  0.70031175  0.82338634  1
  N  N6  8  0.09136391  0.75911279  1.05735410  1
  N  N7  8  0.13418496  0.20091215  0.41426618  1
  N  N8  8  0.16276985  0.16458677  0.16308484  1
  O  O9  8  0.04635389  0.67323347  1.10084456  1
  O  O10  8  0.07787769  0.28506537  0.38791416  1
  O  O11  8  0.13284306  0.83631757  1.12591884  1
  O  O12  8  0.15111616  0.16234362  0.53142539  1
