###############################################################################################
#
# CIF file generated by modified CIFWriter class 
# in pymatgen (v2025.03.10) https://pymatgen.org/
#
###############################################################################################
data_MACE-OFF23(L)_7c408c391df1bb2
_symmetry_space_group_name_H-M   P4_12_12
_cell_length_a   6.95397558
_cell_length_b   6.95397558
_cell_length_c   25.36517880
_cell_angle_alpha   90.00000000
_cell_angle_beta   90.00000000
_cell_angle_gamma   90.00000000
_symmetry_Int_Tables_number   92
_chemical_formula_moiety   'C3 H2 N4 O4'
_chemical_formula_sum   'H16 C24 N32 O32'
_cell_volume   1226.60364398
_cell_formula_units_Z   8
loop_
 _symmetry_equiv_pos_site_id
 _symmetry_equiv_pos_as_xyz
  1  'x, y, z'
  2  '-y+1/2, x+1/2, z+1/4'
  3  '-x, -y, z+1/2'
  4  'y+1/2, -x+1/2, z+3/4'
  5  'x+1/2, -y+1/2, -z+3/4'
  6  '-y, -x, -z+1/2'
  7  '-x+1/2, y+1/2, -z+1/4'
  8  'y, x, -z'
loop_
 _atom_site_type_symbol
 _atom_site_label
 _atom_site_symmetry_multiplicity
 _atom_site_fract_x
 _atom_site_fract_y
 _atom_site_fract_z
 _atom_site_occupancy
  H  H0  8  -0.05341196  0.30857628  0.39484138  1
  H  H1  8  -0.02743327  0.07196678  0.58373731  1
  C  C2  8  -0.04179973  0.15344477  0.66340909  1
  C  C3  8  0.00995487  0.21135421  0.36698706  1
  C  C4  8  0.04635085  0.22370216  0.31380592  1
  N  N5  8  -0.23300519  0.23656567  0.66111984  1
  N  N6  8  -0.02386929  0.37267827  0.27897218  1
  N  N7  8  0.03746077  0.07913560  0.61930070  1
  N  N8  8  0.06634291  0.13884468  0.70490162  1
  O  O9  8  -0.01186858  0.40112586  0.54992326  1
  O  O10  8  -0.01039988  0.34913428  0.23188121  1
  O  O11  8  0.16819260  0.21206975  0.94806187  1
  O  O12  8  0.17573343  0.29575042  0.12886676  1
