###############################################################################################
#
# CIF file generated by modified CIFWriter class 
# in pymatgen (v2025.03.10) https://pymatgen.org/
#
###############################################################################################
data_MACE-OFF23(L)_7e2f12d7bcc4d4a
_symmetry_space_group_name_H-M   P4_12_12
_cell_length_a   8.95363838
_cell_length_b   8.95363838
_cell_length_c   18.59438393
_cell_angle_alpha   90.00000000
_cell_angle_beta   90.00000000
_cell_angle_gamma   90.00000000
_symmetry_Int_Tables_number   92
_chemical_formula_moiety   'C3 H2 N4 O4'
_chemical_formula_sum   'H16 C24 N32 O32'
_cell_volume   1490.66788148
_cell_formula_units_Z   8
loop_
 _symmetry_equiv_pos_site_id
 _symmetry_equiv_pos_as_xyz
  1  'x, y, z'
  2  '-y+1/2, x+1/2, z+1/4'
  3  '-x, -y, z+1/2'
  4  'y+1/2, -x+1/2, z+3/4'
  5  'x+1/2, -y+1/2, -z+3/4'
  6  '-y, -x, -z+1/2'
  7  '-x+1/2, y+1/2, -z+1/4'
  8  'y, x, -z'
loop_
 _atom_site_type_symbol
 _atom_site_label
 _atom_site_symmetry_multiplicity
 _atom_site_fract_x
 _atom_site_fract_y
 _atom_site_fract_z
 _atom_site_occupancy
  H  H0  8  0.01266436  0.66864915  0.41232218  1
  H  H1  8  0.01490480  0.59785443  0.26619577  1
  C  C2  8  -0.02363545  0.35433470  0.28857253  1
  C  C3  8  0.01907889  0.52841197  0.50508163  1
  C  C4  8  0.10368187  0.27730453  0.20391122  1
  N  N5  8  -0.12526227  0.35174811  0.34892625  1
  N  N6  8  0.02478022  0.22712732  0.25702582  1
  N  N7  8  0.07201832  0.61064130  0.44969044  1
  N  N8  8  0.17352540  0.18674100  0.14884577  1
  O  O9  8  -0.15737102  0.23284158  0.37595811  1
  O  O10  8  0.02732032  0.32658483  0.61842555  1
  O  O11  8  0.05654597  0.19920089  0.83738755  1
  O  O12  8  0.20302975  0.24816124  0.09242533  1
