###############################################################################################
#
# CIF file generated by modified CIFWriter class 
# in pymatgen (v2025.03.10) https://pymatgen.org/
#
###############################################################################################
data_MACE-OFF23(L)_7f8d60b44b6ebd3
_symmetry_space_group_name_H-M   P-4b2
_cell_length_a   14.36419142
_cell_length_b   14.36419142
_cell_length_c   7.07589866
_cell_angle_alpha   90.00000000
_cell_angle_beta   90.00000000
_cell_angle_gamma   90.00000000
_symmetry_Int_Tables_number   117
_chemical_formula_moiety   'C3 H2 N4 O4'
_chemical_formula_sum   'H16 C24 N32 O32'
_cell_volume   1459.97013714
_cell_formula_units_Z   8
loop_
 _symmetry_equiv_pos_site_id
 _symmetry_equiv_pos_as_xyz
  1  'x, y, z'
  2  'y, -x, -z'
  3  '-x, -y, z'
  4  '-y, x, -z'
  5  '-x+1/2, y+1/2, z'
  6  '-y+1/2, -x+1/2, -z'
  7  'x+1/2, -y+1/2, z'
  8  'y+1/2, x+1/2, -z'
loop_
 _atom_site_type_symbol
 _atom_site_label
 _atom_site_symmetry_multiplicity
 _atom_site_fract_x
 _atom_site_fract_y
 _atom_site_fract_z
 _atom_site_occupancy
  H  H0  8  0.05365778  0.34778566  1.00272500  1
  H  H1  8  0.12939183  0.32254516  0.67670349  1
  C  C2  8  -0.04869156  0.24850360  0.88520735  1
  C  C3  8  0.01504695  0.23225882  0.62490370  1
  C  C4  8  0.02723117  0.30563916  0.89045963  1
  N  N5  8  -0.11507030  0.23840078  1.03803155  1
  N  N6  8  -0.05633468  0.20248974  0.71935176  1
  N  N7  8  0.03621663  0.20713239  0.43096126  1
  N  N8  8  0.06803485  0.29511609  0.71910775  1
  O  O9  8  -0.17298560  0.17811190  1.02654907  1
  O  O10  8  -0.10788513  0.29400504  1.16796470  1
  O  O11  8  -0.00710374  0.14492202  0.36044224  1
  O  O12  8  0.09743653  0.25313780  0.35426146  1
