###############################################################################################
#
# CIF file generated by modified CIFWriter class 
# in pymatgen (v2025.03.10) https://pymatgen.org/
#
###############################################################################################
data_MACE-OFF23(L)_81fbefb0eac081
_symmetry_space_group_name_H-M   P-42_1c
_cell_length_a   14.07524683
_cell_length_b   14.07524683
_cell_length_c   5.95466875
_cell_angle_alpha   90.00000000
_cell_angle_beta   90.00000000
_cell_angle_gamma   90.00000000
_symmetry_Int_Tables_number   114
_chemical_formula_moiety   'C3 H2 N4 O4'
_chemical_formula_sum   'H16 C24 N32 O32'
_cell_volume   1179.69474953
_cell_formula_units_Z   8
loop_
 _symmetry_equiv_pos_site_id
 _symmetry_equiv_pos_as_xyz
  1  'x, y, z'
  2  'y, -x, -z'
  3  '-x, -y, z'
  4  '-y, x, -z'
  5  'x+1/2, -y+1/2, -z+1/2'
  6  'y+1/2, x+1/2, z+1/2'
  7  '-x+1/2, y+1/2, -z+1/2'
  8  '-y+1/2, -x+1/2, z+1/2'
loop_
 _atom_site_type_symbol
 _atom_site_label
 _atom_site_symmetry_multiplicity
 _atom_site_fract_x
 _atom_site_fract_y
 _atom_site_fract_z
 _atom_site_occupancy
  H  H0  8  0.14881882  0.31642812  0.72532239  1
  H  H1  8  0.18769638  0.73442901  0.71370813  1
  C  C2  8  0.09940487  0.16525435  0.74508829  1
  C  C3  8  0.10697406  0.76709780  0.20500174  1
  C  C4  8  0.16020041  0.24128475  0.74540696  1
  N  N5  8  -0.00248687  0.16810264  0.71834439  1
  N  N6  8  0.04273597  0.68793688  0.16473942  1
  N  N7  8  0.08156287  0.85481495  0.22345936  1
  N  N8  8  0.20193556  0.75236429  0.22096843  1
  O  O9  8  -0.04584566  0.09495780  0.71048429  1
  O  O10  8  -0.04111193  0.70244860  0.19617658  1
  O  O11  8  -0.03990630  0.24761842  0.70484442  1
  O  O12  8  0.07835597  0.61465816  0.10113039  1
