###############################################################################################
#
# CIF file generated by modified CIFWriter class 
# in pymatgen (v2025.03.10) https://pymatgen.org/
#
###############################################################################################
data_MACE-OFF23(L)_82f068f5cc24589
_symmetry_space_group_name_H-M   P-42_1c
_cell_length_a   6.10086969
_cell_length_b   6.10086969
_cell_length_c   36.61574185
_cell_angle_alpha   90.00000000
_cell_angle_beta   90.00000000
_cell_angle_gamma   90.00000000
_symmetry_Int_Tables_number   114
_chemical_formula_moiety   'C3 H2 N4 O4'
_chemical_formula_sum   'H16 C24 N32 O32'
_cell_volume   1362.86028214
_cell_formula_units_Z   8
loop_
 _symmetry_equiv_pos_site_id
 _symmetry_equiv_pos_as_xyz
  1  'x, y, z'
  2  'y, -x, -z'
  3  '-x, -y, z'
  4  '-y, x, -z'
  5  'x+1/2, -y+1/2, -z+1/2'
  6  'y+1/2, x+1/2, z+1/2'
  7  '-x+1/2, y+1/2, -z+1/2'
  8  '-y+1/2, -x+1/2, z+1/2'
loop_
 _atom_site_type_symbol
 _atom_site_label
 _atom_site_symmetry_multiplicity
 _atom_site_fract_x
 _atom_site_fract_y
 _atom_site_fract_z
 _atom_site_occupancy
  H  H0  8  -0.18542856  0.75008848  0.14163005  1
  H  H1  8  -0.00602719  0.74987119  0.20477642  1
  C  C2  8  -0.01177320  0.75005939  0.14675790  1
  C  C3  8  0.16678910  0.75013863  0.12367950  1
  C  C4  8  0.20318623  0.24997240  0.32395888  1
  N  N5  8  0.05584042  0.24996159  0.29395112  1
  N  N6  8  0.07607140  0.74992816  0.18077108  1
  N  N7  8  0.14232450  0.25011763  0.35807366  1
  N  N8  8  0.15590980  0.75034183  0.08381071  1
  O  O9  8  -0.14047576  0.25051940  0.30067567  1
  O  O10  8  -0.02808539  0.75003778  0.07117281  1
  O  O11  8  0.13220603  0.24939500  0.26318435  1
  O  O12  8  0.17405226  0.25081362  0.43270658  1
