###############################################################################################
#
# CIF file generated by modified CIFWriter class 
# in pymatgen (v2025.03.10) https://pymatgen.org/
#
###############################################################################################
data_MACE-OFF23(L)_8548908f1be095b
_symmetry_space_group_name_H-M   P4_2/n
_cell_length_a   10.35788519
_cell_length_b   10.35788519
_cell_length_c   12.02490989
_cell_angle_alpha   90.00000000
_cell_angle_beta   90.00000000
_cell_angle_gamma   90.00000000
_symmetry_Int_Tables_number   86
_chemical_formula_moiety   'C3 H2 N4 O4'
_chemical_formula_sum   'H16 C24 N32 O32'
_cell_volume   1290.10190450
_cell_formula_units_Z   8
loop_
 _symmetry_equiv_pos_site_id
 _symmetry_equiv_pos_as_xyz
  1  'x, y, z'
  2  '-y+1/2, x+1/2, z+1/2'
  3  '-x, -y, z'
  4  'y+1/2, -x+1/2, z+1/2'
  5  '-x+1/2, -y+1/2, -z+1/2'
  6  'y, -x, -z'
  7  'x+1/2, y+1/2, -z+1/2'
  8  '-y, x, -z'
loop_
 _atom_site_type_symbol
 _atom_site_label
 _atom_site_symmetry_multiplicity
 _atom_site_fract_x
 _atom_site_fract_y
 _atom_site_fract_z
 _atom_site_occupancy
  H  H0  8  0.06663693  0.70305440  0.47179277  1
  H  H1  8  0.14029951  0.67508941  0.27012154  1
  C  C2  8  0.02250752  0.24300335  0.83159517  1
  C  C3  8  0.03700198  0.29756486  0.99656663  1
  C  C4  8  0.13166478  0.36598174  0.94266985  1
  N  N5  8  -0.03184740  0.22087407  0.92700002  1
  N  N6  8  -0.01248160  0.17845185  0.72844773  1
  N  N7  8  0.00913274  0.30483448  1.11303677  1
  N  N8  8  0.12003025  0.32903570  0.83534787  1
  O  O9  8  -0.10534213  0.10805155  0.72974280  1
  O  O10  8  -0.08233452  0.24274873  1.14846869  1
  O  O11  8  0.05586805  0.20075459  0.64844461  1
  O  O12  8  0.07554829  0.37489767  1.17027734  1
