###############################################################################################
#
# CIF file generated by modified CIFWriter class 
# in pymatgen (v2025.03.10) https://pymatgen.org/
#
###############################################################################################
data_MACE-OFF23(L)_885f6e6c2b6d2c5
_symmetry_space_group_name_H-M   C222_1
_cell_length_a   17.98876470
_cell_length_b   6.32873839
_cell_length_c   10.67811863
_cell_angle_alpha   90.00000000
_cell_angle_beta   90.00000000
_cell_angle_gamma   90.00000000
_symmetry_Int_Tables_number   20
_chemical_formula_moiety   'C3 H2 N4 O4'
_chemical_formula_sum   'H16 C24 N32 O32'
_cell_volume   1215.66307769
_cell_formula_units_Z   8
loop_
 _symmetry_equiv_pos_site_id
 _symmetry_equiv_pos_as_xyz
  1  'x, y, z'
  2  '-x, -y, z+1/2'
  3  '-x, y, -z+1/2'
  4  'x, -y, -z'
  5  'x+1/2, y+1/2, z'
  6  '-x+1/2, -y+1/2, z+1/2'
  7  '-x+1/2, y+1/2, -z+1/2'
  8  'x+1/2, -y+1/2, -z'
loop_
 _atom_site_type_symbol
 _atom_site_label
 _atom_site_symmetry_multiplicity
 _atom_site_fract_x
 _atom_site_fract_y
 _atom_site_fract_z
 _atom_site_occupancy
  H  H0  8  0.17674014  0.22181870  0.55227215  1
  H  H1  8  0.18072924  0.28025615  1.05516072  1
  C  C2  8  0.18841896  0.20822433  0.85974505  1
  C  C3  8  0.19604123  0.29523579  0.34974888  1
  C  C4  8  0.21190547  0.25213101  0.47266908  1
  N  N5  8  0.10931024  0.19812680  0.83025030  1
  N  N6  8  0.12298039  0.31373163  0.29666468  1
  N  N7  8  0.21274221  0.24938689  0.97746913  1
  N  N8  8  0.24162605  0.81995497  0.22094800  1
  O  O9  8  0.06722665  0.20903096  0.91733254  1
  O  O10  8  0.07068435  0.29931300  0.36565091  1
  O  O11  8  0.09382344  0.17974934  0.71984042  1
  O  O12  8  0.11902632  0.34409026  0.18289378  1
