###############################################################################################
#
# CIF file generated by modified CIFWriter class 
# in pymatgen (v2025.03.10) https://pymatgen.org/
#
###############################################################################################
data_MACE-OFF23(L)_8a90bfadf0c41b4
_symmetry_space_group_name_H-M   Aea2
_cell_length_a   11.85236783
_cell_length_b   11.95792723
_cell_length_c   8.96312277
_cell_angle_alpha   90.00000000
_cell_angle_beta   90.00000000
_cell_angle_gamma   90.00000000
_symmetry_Int_Tables_number   41
_chemical_formula_moiety   'C3 H2 N4 O4'
_chemical_formula_sum   'H16 C24 N32 O32'
_cell_volume   1270.34116731
_cell_formula_units_Z   8
loop_
 _symmetry_equiv_pos_site_id
 _symmetry_equiv_pos_as_xyz
  1  'x, y, z'
  2  '-x, -y, z'
  3  '-x+1/2, y+1/2, z'
  4  'x+1/2, -y+1/2, z'
  5  'x, y+1/2, z+1/2'
  6  '-x, -y+1/2, z+1/2'
  7  '-x+1/2, y, z+1/2'
  8  'x+1/2, -y, z+1/2'
loop_
 _atom_site_type_symbol
 _atom_site_label
 _atom_site_symmetry_multiplicity
 _atom_site_fract_x
 _atom_site_fract_y
 _atom_site_fract_z
 _atom_site_occupancy
  H  H0  8  0.00049201  0.83996541  0.59285456  1
  H  H1  8  0.14701866  0.46297788  -0.04709826  1
  C  C2  8  0.08781070  0.82065129  0.57395966  1
  C  C3  8  0.15066958  0.22873602  0.11154713  1
  C  C4  8  0.23814476  0.33469826  0.50196872  1
  N  N5  8  0.11050346  0.13430314  0.19787781  1
  N  N6  8  0.14044769  0.38684866  0.43531183  1
  N  N7  8  0.16180462  0.38882204  0.00346797  1
  N  N8  8  0.24038240  0.23705552  0.56593427  1
  O  O9  8  0.01002084  0.13021032  0.22424462  1
  O  O10  8  0.06036298  0.32768615  0.40670938  1
  O  O11  8  0.14698728  0.98648234  -0.09014116  1
  O  O12  8  0.17990802  0.06732423  0.24203943  1
