###############################################################################################
#
# CIF file generated by modified CIFWriter class 
# in pymatgen (v2025.03.10) https://pymatgen.org/
#
###############################################################################################
data_MACE-OFF23(L)_8c841e22c18e088
_symmetry_space_group_name_H-M   Pbca
_cell_length_a   10.31795028
_cell_length_b   18.17093860
_cell_length_c   6.25770629
_cell_angle_alpha   90.00000000
_cell_angle_beta   90.00000000
_cell_angle_gamma   90.00000000
_symmetry_Int_Tables_number   61
_chemical_formula_moiety   'C3 H2 N4 O4'
_chemical_formula_sum   'H16 C24 N32 O32'
_cell_volume   1173.23758437
_cell_formula_units_Z   8
loop_
 _symmetry_equiv_pos_site_id
 _symmetry_equiv_pos_as_xyz
  1  'x, y, z'
  2  '-x, -y, -z'
  3  '-x, y+1/2, -z+1/2'
  4  'x, -y+1/2, z+1/2'
  5  '-x+1/2, -y, z+1/2'
  6  'x+1/2, y, -z+1/2'
  7  'x+1/2, -y+1/2, -z'
  8  '-x+1/2, y+1/2, z'
loop_
 _atom_site_type_symbol
 _atom_site_label
 _atom_site_symmetry_multiplicity
 _atom_site_fract_x
 _atom_site_fract_y
 _atom_site_fract_z
 _atom_site_occupancy
  H  H0  8  -0.01589025  0.35275840  0.07449001  1
  H  H1  8  0.02072794  0.08333769  0.21962832  1
  C  C2  8  -0.22202690  0.14309657  0.46658161  1
  C  C3  8  -0.18429017  0.08997414  0.17968720  1
  C  C4  8  -0.09035950  0.13302584  0.46217708  1
  N  N5  8  -0.19706488  0.44333939  -0.52793857  1
  N  N6  8  -0.06800885  0.09852605  0.27436632  1
  N  N7  8  0.20431363  0.17885036  0.86708649  1
  N  N8  8  0.21940571  0.11596363  1.20977698  1
  O  O9  8  -0.23385532  0.20483780  0.78192509  1
  O  O10  8  -0.09784828  0.03912213  -0.11995838  1
  O  O11  8  0.08803957  0.18056738  0.88490887  1
  O  O12  8  0.19407139  0.04857771  1.59784936  1
