###############################################################################################
#
# CIF file generated by modified CIFWriter class 
# in pymatgen (v2025.03.10) https://pymatgen.org/
#
###############################################################################################
data_MACE-OFF23(L)_8d41f8b771ce774
_symmetry_space_group_name_H-M   I222
_cell_length_a   6.44370527
_cell_length_b   11.69747121
_cell_length_c   18.49100979
_cell_angle_alpha   90.00000000
_cell_angle_beta   90.00000000
_cell_angle_gamma   90.00000000
_symmetry_Int_Tables_number   23
_chemical_formula_moiety   'C3 H2 N4 O4'
_chemical_formula_sum   'H16 C24 N32 O32'
_cell_volume   1393.76091403
_cell_formula_units_Z   8
loop_
 _symmetry_equiv_pos_site_id
 _symmetry_equiv_pos_as_xyz
  1  'x, y, z'
  2  '-x, -y, z'
  3  'x, -y, -z'
  4  '-x, y, -z'
  5  'x+1/2, y+1/2, z+1/2'
  6  '-x+1/2, -y+1/2, z+1/2'
  7  'x+1/2, -y+1/2, -z+1/2'
  8  '-x+1/2, y+1/2, -z+1/2'
loop_
 _atom_site_type_symbol
 _atom_site_label
 _atom_site_symmetry_multiplicity
 _atom_site_fract_x
 _atom_site_fract_y
 _atom_site_fract_z
 _atom_site_occupancy
  H  H0  8  -0.13081442  0.10093151  0.62488601  1
  H  H1  8  0.21503232  0.05073425  0.69237218  1
  C  C2  8  0.00781569  0.25903467  0.60521431  1
  C  C3  8  0.18008821  0.12753974  0.66283063  1
  C  C4  8  0.21189577  0.27198640  0.15630078  1
  N  N5  8  -0.16623534  0.30697400  0.56516079  1
  N  N6  8  -0.00200922  0.14918635  0.62866838  1
  N  N7  8  0.00828344  0.25046072  0.18564391  1
  N  N8  8  0.18016202  0.30993627  0.62098324  1
  O  O9  8  -0.16926981  0.40725614  0.55434716  1
  O  O10  8  -0.09071520  0.33377338  0.20644841  1
  O  O11  8  -0.05293599  0.15303619  0.18864342  1
  O  O12  8  0.20405754  0.26423837  0.95396042  1
