###############################################################################################
#
# CIF file generated by modified CIFWriter class 
# in pymatgen (v2025.03.10) https://pymatgen.org/
#
###############################################################################################
data_MACE-OFF23(L)_8e02b905f87d325
_symmetry_space_group_name_H-M   P4/n
_cell_length_a   13.89286293
_cell_length_b   13.89286293
_cell_length_c   6.18432262
_cell_angle_alpha   90.00000000
_cell_angle_beta   90.00000000
_cell_angle_gamma   90.00000000
_symmetry_Int_Tables_number   85
_chemical_formula_moiety   'C3 H2 N4 O4'
_chemical_formula_sum   'H16 C24 N32 O32'
_cell_volume   1193.64625498
_cell_formula_units_Z   8
loop_
 _symmetry_equiv_pos_site_id
 _symmetry_equiv_pos_as_xyz
  1  'x, y, z'
  2  '-y+1/2, x+1/2, z'
  3  '-x, -y, z'
  4  'y+1/2, -x+1/2, z'
  5  '-x+1/2, -y+1/2, -z'
  6  'y, -x, -z'
  7  'x+1/2, y+1/2, -z'
  8  '-y, x, -z'
loop_
 _atom_site_type_symbol
 _atom_site_label
 _atom_site_symmetry_multiplicity
 _atom_site_fract_x
 _atom_site_fract_y
 _atom_site_fract_z
 _atom_site_occupancy
  H  H0  8  0.14979194  0.34012183  0.32594504  1
  H  H1  8  0.19882890  0.25412336  0.77944571  1
  C  C2  8  0.07706402  0.20557330  0.29355292  1
  C  C3  8  0.12366693  0.80469135  0.78923737  1
  C  C4  8  0.21598885  0.76990163  0.76420222  1
  N  N5  8  -0.01930863  0.23846106  0.33459119  1
  N  N6  8  0.03995552  0.74833718  0.84081290  1
  N  N7  8  0.09986949  0.11767643  0.24659170  1
  N  N8  8  0.15209591  0.26818627  0.29153737  1
  O  O9  8  -0.08519549  0.18322692  0.30369183  1
  O  O10  8  -0.03913170  0.78330299  0.80797004  1
  O  O11  8  -0.02925091  0.32210283  0.39441783  1
  O  O12  8  0.05375589  0.66848399  0.91448781  1
