###############################################################################################
#
# CIF file generated by modified CIFWriter class 
# in pymatgen (v2025.03.10) https://pymatgen.org/
#
###############################################################################################
data_MACE-OFF23(L)_8fdceff6bde014a
_symmetry_space_group_name_H-M   Pbca
_cell_length_a   14.07434217
_cell_length_b   10.08577015
_cell_length_c   8.43206957
_cell_angle_alpha   90.00000000
_cell_angle_beta   90.00000000
_cell_angle_gamma   90.00000000
_symmetry_Int_Tables_number   61
_chemical_formula_moiety   'C3 H2 N4 O4'
_chemical_formula_sum   'H16 C24 N32 O32'
_cell_volume   1196.93716802
_cell_formula_units_Z   8
loop_
 _symmetry_equiv_pos_site_id
 _symmetry_equiv_pos_as_xyz
  1  'x, y, z'
  2  '-x, -y, -z'
  3  '-x, y+1/2, -z+1/2'
  4  'x, -y+1/2, z+1/2'
  5  '-x+1/2, -y, z+1/2'
  6  'x+1/2, y, -z+1/2'
  7  'x+1/2, -y+1/2, -z'
  8  '-x+1/2, y+1/2, z'
loop_
 _atom_site_type_symbol
 _atom_site_label
 _atom_site_symmetry_multiplicity
 _atom_site_fract_x
 _atom_site_fract_y
 _atom_site_fract_z
 _atom_site_occupancy
  H  H0  8  0.08219500  0.05371768  0.77738691  1
  H  H1  8  0.23609895  0.50733755  0.42522448  1
  C  C2  8  0.13317383  0.12295219  0.82368073  1
  C  C3  8  0.13671145  0.24143896  0.32015381  1
  C  C4  8  0.24396930  0.79954295  0.44672293  1
  N  N5  8  0.06989867  0.15435133  0.24372454  1
  N  N6  8  0.15957972  0.70147208  1.04459410  1
  N  N7  8  0.21176101  0.08729197  0.90632322  1
  N  N8  8  0.21355890  0.19245922  0.39812978  1
  O  O9  8  0.00968775  0.29436458  0.65970743  1
  O  O10  8  0.07818759  0.03573961  0.26457252  1
  O  O11  8  0.12546804  0.59417918  1.07667409  1
  O  O12  8  0.13138001  0.69180401  0.59079623  1
