###############################################################################################
#
# CIF file generated by modified CIFWriter class 
# in pymatgen (v2025.03.10) https://pymatgen.org/
#
###############################################################################################
data_MACE-OFF23(L)_9b37e6eeab96e9a
_symmetry_space_group_name_H-M   P4_32_12
_cell_length_a   11.86619051
_cell_length_b   11.86619051
_cell_length_c   9.03273452
_cell_angle_alpha   90.00000000
_cell_angle_beta   90.00000000
_cell_angle_gamma   90.00000000
_symmetry_Int_Tables_number   96
_chemical_formula_moiety   'C3 H2 N4 O4'
_chemical_formula_sum   'H16 C24 N32 O32'
_cell_volume   1271.86752852
_cell_formula_units_Z   8
loop_
 _symmetry_equiv_pos_site_id
 _symmetry_equiv_pos_as_xyz
  1  'x, y, z'
  2  '-y+1/2, x+1/2, z+3/4'
  3  '-x, -y, z+1/2'
  4  'y+1/2, -x+1/2, z+1/4'
  5  'x+1/2, -y+1/2, -z+1/4'
  6  '-y, -x, -z+1/2'
  7  '-x+1/2, y+1/2, -z+3/4'
  8  'y, x, -z'
loop_
 _atom_site_type_symbol
 _atom_site_label
 _atom_site_symmetry_multiplicity
 _atom_site_fract_x
 _atom_site_fract_y
 _atom_site_fract_z
 _atom_site_occupancy
  H  H0  8  0.09527167  0.64801718  -0.03363277  1
  H  H1  8  0.23216560  0.73610896  0.61733913  1
  C  C2  8  0.04323552  0.81342301  0.06313464  1
  C  C3  8  0.09580464  0.82160569  0.51891307  1
  C  C4  8  0.10645825  0.73635234  -0.01320545  1
  N  N5  8  -0.06442024  0.79005035  0.13180031  1
  N  N6  8  0.00699183  0.74341907  0.55930873  1
  N  N7  8  0.08181889  0.91135337  0.43958221  1
  N  N8  8  0.19395887  0.79743902  -0.06722387  1
  O  O9  8  -0.12051905  0.86775446  0.17891129  1
  O  O10  8  -0.09193371  0.69112511  0.13670145  1
  O  O11  8  -0.08469528  0.75692510  0.50369811  1
  O  O12  8  0.03143427  0.67037306  0.64799469  1
