###############################################################################################
#
# CIF file generated by modified CIFWriter class 
# in pymatgen (v2025.03.10) https://pymatgen.org/
#
###############################################################################################
data_MACE-OFF23(L)_9fcb4df78f2e6a
_symmetry_space_group_name_H-M   P-42_1c
_cell_length_a   8.20762857
_cell_length_b   8.20762857
_cell_length_c   18.39331817
_cell_angle_alpha   90.00000000
_cell_angle_beta   90.00000000
_cell_angle_gamma   90.00000000
_symmetry_Int_Tables_number   114
_chemical_formula_moiety   'C3 H2 N4 O4'
_chemical_formula_sum   'H16 C24 N32 O32'
_cell_volume   1239.06894540
_cell_formula_units_Z   8
loop_
 _symmetry_equiv_pos_site_id
 _symmetry_equiv_pos_as_xyz
  1  'x, y, z'
  2  'y, -x, -z'
  3  '-x, -y, z'
  4  '-y, x, -z'
  5  'x+1/2, -y+1/2, -z+1/2'
  6  'y+1/2, x+1/2, z+1/2'
  7  '-x+1/2, y+1/2, -z+1/2'
  8  '-y+1/2, -x+1/2, z+1/2'
loop_
 _atom_site_type_symbol
 _atom_site_label
 _atom_site_symmetry_multiplicity
 _atom_site_fract_x
 _atom_site_fract_y
 _atom_site_fract_z
 _atom_site_occupancy
  H  H0  8  0.04017440  0.14652707  0.42611154  1
  H  H1  8  0.13429685  0.23780883  0.29948053  1
  C  C2  8  -0.12650978  0.67165834  0.95880401  1
  C  C3  8  -0.06204952  0.74158645  0.85465078  1
  C  C4  8  0.11221037  0.25221515  0.41461814  1
  N  N5  8  -0.11976041  0.65419665  1.03687382  1
  N  N6  8  -0.01009422  0.75179684  0.92132301  1
  N  N7  8  0.01749030  0.80897621  0.79198045  1
  N  N8  8  0.15797623  0.29661938  0.34713857  1
  O  O9  8  -0.04894641  0.79030390  0.73338391  1
  O  O10  8  0.00447914  0.69251493  1.06770437  1
  O  O11  8  0.09934133  0.25924242  0.56636068  1
  O  O12  8  0.11983494  0.14633499  0.19959217  1
