###############################################################################################
#
# CIF file generated by modified CIFWriter class 
# in pymatgen (v2025.03.10) https://pymatgen.org/
#
###############################################################################################
data_MACE-OFF23(L)_a562998b1f7e56f
_symmetry_space_group_name_H-M   P4_2/m
_cell_length_a   6.49930190
_cell_length_b   6.49930190
_cell_length_c   37.40767212
_cell_angle_alpha   90.00000000
_cell_angle_beta   90.00000000
_cell_angle_gamma   90.00000000
_symmetry_Int_Tables_number   84
_chemical_formula_moiety   'C3 H2 N4 O4'
_chemical_formula_sum   'H16 C24 N32 O32'
_cell_volume   1580.13467832
_cell_formula_units_Z   8
loop_
 _symmetry_equiv_pos_site_id
 _symmetry_equiv_pos_as_xyz
  1  'x, y, z'
  2  '-x, -y, -z'
  3  '-y, x, z+1/2'
  4  'y, -x, -z+1/2'
  5  '-x, -y, z'
  6  'x, y, -z'
  7  'y, -x, z+1/2'
  8  '-y, x, -z+1/2'
loop_
 _atom_site_type_symbol
 _atom_site_label
 _atom_site_symmetry_multiplicity
 _atom_site_fract_x
 _atom_site_fract_y
 _atom_site_fract_z
 _atom_site_occupancy
  H  H0  8  0.08967526  0.25582254  0.35547291  1
  H  H1  8  0.24650571  0.25187609  0.29292959  1
  C  C2  8  0.24809775  0.46176513  0.17494695  1
  C  C3  8  0.25111081  0.66818458  0.81760086  1
  C  C4  8  0.25271943  0.60449140  0.12525339  1
  N  N5  8  0.23986867  0.29732964  0.79925207  1
  N  N6  8  0.24216899  0.25424707  0.35032557  1
  N  N7  8  0.24956576  0.42147875  0.86076253  1
  N  N8  8  0.25423816  0.65047009  0.91278138  1
  O  O9  8  0.12055686  0.74925369  0.68979991  1
  O  O10  8  0.16828723  0.25662926  0.42032558  1
  O  O11  8  0.22157325  0.34462521  0.76808164  1
  O  O12  8  0.25307805  0.50650753  0.06692287  1
