###############################################################################################
#
# CIF file generated by modified CIFWriter class 
# in pymatgen (v2025.03.10) https://pymatgen.org/
#
###############################################################################################
data_MACE-OFF23(L)_aa80efa0773ff5e
_symmetry_space_group_name_H-M   Pbcn
_cell_length_a   21.45033880
_cell_length_b   10.73501596
_cell_length_c   6.18604405
_cell_angle_alpha   90.00000000
_cell_angle_beta   90.00000000
_cell_angle_gamma   90.00000000
_symmetry_Int_Tables_number   60
_chemical_formula_moiety   'C3 H2 N4 O4'
_chemical_formula_sum   'H16 C24 N32 O32'
_cell_volume   1424.45868980
_cell_formula_units_Z   8
loop_
 _symmetry_equiv_pos_site_id
 _symmetry_equiv_pos_as_xyz
  1  'x, y, z'
  2  '-x, -y, -z'
  3  '-x+1/2, -y+1/2, z+1/2'
  4  'x+1/2, y+1/2, -z+1/2'
  5  'x+1/2, -y+1/2, -z'
  6  '-x+1/2, y+1/2, z'
  7  '-x, y, -z+1/2'
  8  'x, -y, z+1/2'
loop_
 _atom_site_type_symbol
 _atom_site_label
 _atom_site_symmetry_multiplicity
 _atom_site_fract_x
 _atom_site_fract_y
 _atom_site_fract_z
 _atom_site_occupancy
  H  H0  8  0.23701643  0.40665139  0.25834682  1
  H  H1  8  0.24071352  0.32276156  0.80263360  1
  C  C2  8  0.14258032  0.35244763  0.19698015  1
  C  C3  8  0.15634108  0.16299985  0.23927023  1
  C  C4  8  0.21397816  0.21617427  0.27198106  1
  N  N5  8  0.11217878  0.24822085  0.19068782  1
  N  N6  8  0.11714827  0.47553557  0.15771206  1
  N  N7  8  0.14301594  0.03188034  0.24378497  1
  N  N8  8  0.20405610  0.33917517  0.24445140  1
  O  O9  8  0.06452634  0.48512239  0.09745467  1
  O  O10  8  0.09407861  -0.00544213  0.17937368  1
  O  O11  8  0.15375389  0.43757461  0.68869242  1
  O  O12  8  0.18483167  1.03579774  0.81605739  1
