###############################################################################################
#
# CIF file generated by modified CIFWriter class 
# in pymatgen (v2025.03.10) https://pymatgen.org/
#
###############################################################################################
data_MACE-OFF23(L)_ab1e6e5f5d11b23
_symmetry_space_group_name_H-M   P-4b2
_cell_length_a   10.30891667
_cell_length_b   10.30891667
_cell_length_c   16.27884924
_cell_angle_alpha   90.00000000
_cell_angle_beta   90.00000000
_cell_angle_gamma   90.00000000
_symmetry_Int_Tables_number   117
_chemical_formula_moiety   'C3 H2 N4 O4'
_chemical_formula_sum   'H16 C24 N32 O32'
_cell_volume   1730.01456572
_cell_formula_units_Z   8
loop_
 _symmetry_equiv_pos_site_id
 _symmetry_equiv_pos_as_xyz
  1  'x, y, z'
  2  'y, -x, -z'
  3  '-x, -y, z'
  4  '-y, x, -z'
  5  '-x+1/2, y+1/2, z'
  6  '-y+1/2, -x+1/2, -z'
  7  'x+1/2, -y+1/2, z'
  8  'y+1/2, x+1/2, -z'
loop_
 _atom_site_type_symbol
 _atom_site_label
 _atom_site_symmetry_multiplicity
 _atom_site_fract_x
 _atom_site_fract_y
 _atom_site_fract_z
 _atom_site_occupancy
  H  H0  8  -0.02077756  0.13817244  0.37856710  1
  H  H1  8  -0.01816944  0.32943373  0.28283965  1
  C  C2  8  0.06444140  0.17784797  0.35045311  1
  C  C3  8  0.14457626  0.80710798  0.64409661  1
  C  C4  8  0.18715163  0.30349581  0.27761818  1
  N  N5  8  0.03862192  0.75225056  0.59844384  1
  N  N6  8  0.06291548  0.28020890  0.29902825  1
  N  N7  8  0.08754014  0.27767235  0.77373571  1
  N  N8  8  0.22352406  0.73036498  0.68948303  1
  O  O9  8  -0.02626552  0.82571766  0.55652652  1
  O  O10  8  0.01933850  0.63651567  0.60513849  1
  O  O11  8  0.02499106  0.36704445  0.80195769  1
  O  O12  8  0.06590168  0.16310905  0.78331483  1
