###############################################################################################
#
# CIF file generated by modified CIFWriter class 
# in pymatgen (v2025.03.10) https://pymatgen.org/
#
###############################################################################################
data_MACE-OFF23(L)_ab892cde7b419ba
_symmetry_space_group_name_H-M   Iba2
_cell_length_a   10.27257517
_cell_length_b   10.77687227
_cell_length_c   11.42282729
_cell_angle_alpha   90.00000000
_cell_angle_beta   90.00000000
_cell_angle_gamma   90.00000000
_symmetry_Int_Tables_number   45
_chemical_formula_moiety   'C3 H2 N4 O4'
_chemical_formula_sum   'H16 C24 N32 O32'
_cell_volume   1264.57815045
_cell_formula_units_Z   8
loop_
 _symmetry_equiv_pos_site_id
 _symmetry_equiv_pos_as_xyz
  1  'x, y, z'
  2  '-x, -y, z'
  3  '-x, y, z+1/2'
  4  'x, -y, z+1/2'
  5  'x+1/2, y+1/2, z+1/2'
  6  '-x+1/2, -y+1/2, z+1/2'
  7  '-x+1/2, y+1/2, z'
  8  'x+1/2, -y+1/2, z'
loop_
 _atom_site_type_symbol
 _atom_site_label
 _atom_site_symmetry_multiplicity
 _atom_site_fract_x
 _atom_site_fract_y
 _atom_site_fract_z
 _atom_site_occupancy
  H  H0  8  0.00608747  0.27810914  0.43991266  1
  H  H1  8  0.00677856  0.10066685  0.29512477  1
  C  C2  8  0.08860983  0.12745230  0.34778634  1
  C  C3  8  0.20495830  0.76501573  0.96771092  1
  C  C4  8  0.21448334  0.08486355  0.35432956  1
  N  N5  8  0.08417412  0.22301838  0.42359411  1
  N  N6  8  0.21179886  0.34582792  0.92828751  1
  N  N7  8  0.23268730  0.47651673  0.29762707  1
  N  N8  8  0.23478378  0.32954079  0.55313048  1
  O  O9  8  0.11949597  0.54736184  0.81317101  1
  O  O10  8  0.14312881  0.37992833  0.59980115  1
  O  O11  8  0.15080001  0.14833809  1.07107493  1
  O  O12  8  0.19267348  -0.08680254  0.23871116  1
