###############################################################################################
#
# CIF file generated by modified CIFWriter class 
# in pymatgen (v2025.03.10) https://pymatgen.org/
#
###############################################################################################
data_MACE-OFF23(L)_ae8d0281f6b727
_symmetry_space_group_name_H-M   Pbcn
_cell_length_a   12.86407153
_cell_length_b   18.38734329
_cell_length_c   5.95123231
_cell_angle_alpha   90.00000000
_cell_angle_beta   90.00000000
_cell_angle_gamma   90.00000000
_symmetry_Int_Tables_number   60
_chemical_formula_moiety   'C3 H2 N4 O4'
_chemical_formula_sum   'H16 C24 N32 O32'
_cell_volume   1407.68127668
_cell_formula_units_Z   8
loop_
 _symmetry_equiv_pos_site_id
 _symmetry_equiv_pos_as_xyz
  1  'x, y, z'
  2  '-x, -y, -z'
  3  '-x+1/2, -y+1/2, z+1/2'
  4  'x+1/2, y+1/2, -z+1/2'
  5  'x+1/2, -y+1/2, -z'
  6  '-x+1/2, y+1/2, z'
  7  '-x, y, -z+1/2'
  8  'x, -y, z+1/2'
loop_
 _atom_site_type_symbol
 _atom_site_label
 _atom_site_symmetry_multiplicity
 _atom_site_fract_x
 _atom_site_fract_y
 _atom_site_fract_z
 _atom_site_occupancy
  H  H0  8  0.03070414  0.09410958  0.46279664  1
  H  H1  8  0.08076819  0.16988613  0.81641062  1
  C  C2  8  0.13227509  0.14830240  0.69182352  1
  C  C3  8  0.19112917  0.09904059  0.38749317  1
  C  C4  8  0.23803920  0.15355361  0.67328396  1
  N  N5  8  0.10235891  0.11277941  0.50294863  1
  N  N6  8  0.18724530  0.06136551  0.17488868  1
  N  N7  8  0.19681898  0.30938934  0.33480057  1
  N  N8  8  0.22512469  0.37693956  -0.01601835  1
  O  O9  8  0.09937698  0.04604832  0.10488209  1
  O  O10  8  0.10804068  0.29570641  0.28818256  1
  O  O11  8  0.23357317  0.45334598  -0.42058162  1
  O  O12  8  0.24020877  0.29310334  0.51068171  1
