###############################################################################################
#
# CIF file generated by modified CIFWriter class 
# in pymatgen (v2025.03.10) https://pymatgen.org/
#
###############################################################################################
data_MACE-OFF23(L)_afe8debb3e1ea70
_symmetry_space_group_name_H-M   Pbcn
_cell_length_a   15.34521679
_cell_length_b   12.45406546
_cell_length_c   5.97808580
_cell_angle_alpha   90.00000000
_cell_angle_beta   90.00000000
_cell_angle_gamma   90.00000000
_symmetry_Int_Tables_number   60
_chemical_formula_moiety   'C3 H2 N4 O4'
_chemical_formula_sum   'H16 C24 N32 O32'
_cell_volume   1142.47397715
_cell_formula_units_Z   8
loop_
 _symmetry_equiv_pos_site_id
 _symmetry_equiv_pos_as_xyz
  1  'x, y, z'
  2  '-x, -y, -z'
  3  '-x+1/2, -y+1/2, z+1/2'
  4  'x+1/2, y+1/2, -z+1/2'
  5  'x+1/2, -y+1/2, -z'
  6  '-x+1/2, y+1/2, z'
  7  '-x, y, -z+1/2'
  8  'x, -y, z+1/2'
loop_
 _atom_site_type_symbol
 _atom_site_label
 _atom_site_symmetry_multiplicity
 _atom_site_fract_x
 _atom_site_fract_y
 _atom_site_fract_z
 _atom_site_occupancy
  H  H0  8  0.16093070  0.62210334  0.51291554  1
  H  H1  8  0.21091574  0.25286291  0.52054166  1
  C  C2  8  0.08061013  0.23715981  1.00497415  1
  C  C3  8  0.18033631  0.12578139  1.01345130  1
  C  C4  8  0.22129870  0.22474073  1.01622323  1
  N  N5  8  -0.00264961  0.29128144  1.00006794  1
  N  N6  8  0.09289087  0.13458444  1.00631076  1
  N  N7  8  0.15558359  0.29593049  1.01051767  1
  N  N8  8  0.22159945  0.02300812  1.01862599  1
  O  O9  8  -0.06817315  0.23581142  0.99675921  1
  O  O10  8  -0.00095423  0.38846273  0.99997398  1
  O  O11  8  0.17734984  -0.05765700  1.01308921  1
  O  O12  8  0.19838184  0.47868743  0.52880639  1
