###############################################################################################
#
# CIF file generated by modified CIFWriter class 
# in pymatgen (v2025.03.10) https://pymatgen.org/
#
###############################################################################################
data_MACE-OFF23(L)_b26dc907d746fa0
_symmetry_space_group_name_H-M   Pbca
_cell_length_a   14.00344045
_cell_length_b   8.79881291
_cell_length_c   10.24615383
_cell_angle_alpha   90.00000000
_cell_angle_beta   90.00000000
_cell_angle_gamma   90.00000000
_symmetry_Int_Tables_number   61
_chemical_formula_moiety   'C3 H2 N4 O4'
_chemical_formula_sum   'H16 C24 N32 O32'
_cell_volume   1262.46603807
_cell_formula_units_Z   8
loop_
 _symmetry_equiv_pos_site_id
 _symmetry_equiv_pos_as_xyz
  1  'x, y, z'
  2  '-x, -y, -z'
  3  'x+1/2, -y+1/2, -z'
  4  '-x+1/2, y+1/2, z'
  5  '-x, y+1/2, -z+1/2'
  6  'x, -y+1/2, z+1/2'
  7  '-x+1/2, -y, z+1/2'
  8  'x+1/2, y, -z+1/2'
loop_
 _atom_site_type_symbol
 _atom_site_label
 _atom_site_symmetry_multiplicity
 _atom_site_fract_x
 _atom_site_fract_y
 _atom_site_fract_z
 _atom_site_occupancy
  H  H0  8  0.10377627  -0.08883297  0.86572179  1
  H  H1  8  0.22305560  0.02065476  0.70387388  1
  C  C2  8  -0.00005492  0.02739668  0.73133942  1
  C  C3  8  0.08536283  0.52482176  0.28005875  1
  C  C4  8  0.10165485  0.09973667  0.59919972  1
  N  N5  8  -0.09274298  0.00926406  0.78753755  1
  N  N6  8  0.01017738  0.10495423  0.61845018  1
  N  N7  8  0.15027936  0.16478760  0.48720985  1
  N  N8  8  0.15035292  0.02409971  0.69271799  1
  O  O9  8  -0.16086118  0.06370270  0.72872390  1
  O  O10  8  -0.09973900  -0.05897599  0.89012293  1
  O  O11  8  0.10172304  0.21829773  0.40104535  1
  O  O12  8  0.23688890  0.15956769  0.48821275  1
