###############################################################################################
#
# CIF file generated by modified CIFWriter class 
# in pymatgen (v2025.03.10) https://pymatgen.org/
#
###############################################################################################
data_MACE-OFF23(L)_b669c5c3b6eccba
_symmetry_space_group_name_H-M   P-42_1c
_cell_length_a   14.42806517
_cell_length_b   14.42806517
_cell_length_c   6.42018039
_cell_angle_alpha   90.00000000
_cell_angle_beta   90.00000000
_cell_angle_gamma   90.00000000
_symmetry_Int_Tables_number   114
_chemical_formula_moiety   'C3 H2 N4 O4'
_chemical_formula_sum   'H16 C24 N32 O32'
_cell_volume   1336.48294531
_cell_formula_units_Z   8
loop_
 _symmetry_equiv_pos_site_id
 _symmetry_equiv_pos_as_xyz
  1  'x, y, z'
  2  'y, -x, -z'
  3  '-x, -y, z'
  4  '-y, x, -z'
  5  'x+1/2, -y+1/2, -z+1/2'
  6  'y+1/2, x+1/2, z+1/2'
  7  '-x+1/2, y+1/2, -z+1/2'
  8  '-y+1/2, -x+1/2, z+1/2'
loop_
 _atom_site_type_symbol
 _atom_site_label
 _atom_site_symmetry_multiplicity
 _atom_site_fract_x
 _atom_site_fract_y
 _atom_site_fract_z
 _atom_site_occupancy
  H  H0  8  -0.15072700  0.70391013  0.77314726  1
  H  H1  8  -0.07204945  0.64349491  0.44375761  1
  C  C2  8  -0.04131921  0.68810315  0.55747671  1
  C  C3  8  -0.02229335  0.76874017  0.83861379  1
  C  C4  8  0.04284961  0.73140789  0.56340699  1
  N  N5  8  -0.08292846  0.71223060  0.73878311  1
  N  N6  8  -0.04189289  0.79967338  1.04903376  1
  N  N7  8  0.05482160  0.78173110  0.73916153  1
  N  N8  8  0.11260078  0.72401071  0.40185741  1
  O  O9  8  -0.10952747  0.76398279  1.13049689  1
  O  O10  8  0.00942871  0.85512366  1.12858779  1
  O  O11  8  0.09463332  0.67074990  0.25905624  1
  O  O12  8  0.18179257  0.77008396  0.41601498  1
