###############################################################################################
#
# CIF file generated by modified CIFWriter class 
# in pymatgen (v2025.03.10) https://pymatgen.org/
#
###############################################################################################
data_MACE-OFF23(L)_b6fa7e46ebaef52
_symmetry_space_group_name_H-M   P-42_1c
_cell_length_a   15.31593951
_cell_length_b   15.31593951
_cell_length_c   5.39043056
_cell_angle_alpha   90.00000000
_cell_angle_beta   90.00000000
_cell_angle_gamma   90.00000000
_symmetry_Int_Tables_number   114
_chemical_formula_moiety   'C3 H2 N4 O4'
_chemical_formula_sum   'H16 C24 N32 O32'
_cell_volume   1264.47643600
_cell_formula_units_Z   8
loop_
 _symmetry_equiv_pos_site_id
 _symmetry_equiv_pos_as_xyz
  1  'x, y, z'
  2  'y, -x, -z'
  3  '-x, -y, z'
  4  '-y, x, -z'
  5  'x+1/2, -y+1/2, -z+1/2'
  6  'y+1/2, x+1/2, z+1/2'
  7  '-x+1/2, y+1/2, -z+1/2'
  8  '-y+1/2, -x+1/2, z+1/2'
loop_
 _atom_site_type_symbol
 _atom_site_label
 _atom_site_symmetry_multiplicity
 _atom_site_fract_x
 _atom_site_fract_y
 _atom_site_fract_z
 _atom_site_occupancy
  H  H0  8  0.03803228  0.20551709  1.20738546  1
  H  H1  8  0.08029921  0.86716341  -0.03508083  1
  C  C2  8  0.07151638  0.27269933  0.88105058  1
  C  C3  8  0.11983465  0.14107593  0.94301936  1
  C  C4  8  0.14816499  0.17568856  0.72343218  1
  N  N5  8  0.01361313  0.34736002  0.91814615  1
  N  N6  8  0.07000146  0.20548771  1.04331751  1
  N  N7  8  0.11874543  0.25825083  0.68560565  1
  N  N8  8  0.13094769  0.80343174  0.46742429  1
  O  O9  8  -0.04377350  0.33495415  1.07159263  1
  O  O10  8  0.02569884  0.41084279  0.79413678  1
  O  O11  8  0.05144066  0.81493589  0.48485837  1
  O  O12  8  0.17287736  0.75861600  0.60605395  1
