###############################################################################################
#
# CIF file generated by modified CIFWriter class 
# in pymatgen (v2025.03.10) https://pymatgen.org/
#
###############################################################################################
data_MACE-OFF23(L)_b97206a4e05dcb7
_symmetry_space_group_name_H-M   P4_32_12
_cell_length_a   8.89823287
_cell_length_b   8.89823287
_cell_length_c   14.85365540
_cell_angle_alpha   90.00000000
_cell_angle_beta   90.00000000
_cell_angle_gamma   90.00000000
_symmetry_Int_Tables_number   96
_chemical_formula_moiety   'C3 H2 N4 O4'
_chemical_formula_sum   'H16 C24 N32 O32'
_cell_volume   1176.09087087
_cell_formula_units_Z   8
loop_
 _symmetry_equiv_pos_site_id
 _symmetry_equiv_pos_as_xyz
  1  'x, y, z'
  2  '-y+1/2, x+1/2, z+3/4'
  3  '-x, -y, z+1/2'
  4  'y+1/2, -x+1/2, z+1/4'
  5  'x+1/2, -y+1/2, -z+1/4'
  6  '-y, -x, -z+1/2'
  7  '-x+1/2, y+1/2, -z+3/4'
  8  'y, x, -z'
loop_
 _atom_site_type_symbol
 _atom_site_label
 _atom_site_symmetry_multiplicity
 _atom_site_fract_x
 _atom_site_fract_y
 _atom_site_fract_z
 _atom_site_occupancy
  H  H0  8  -0.05677241  0.18198081  0.81540491  1
  H  H1  8  0.21610552  0.25885080  0.84926004  1
  C  C2  8  0.01754474  -0.02738090  0.88602253  1
  C  C3  8  0.02388760  0.11439732  0.85061754  1
  C  C4  8  0.05158662  0.23135178  0.08253604  1
  N  N5  8  -0.10919668  -0.12908806  0.88525046  1
  N  N6  8  -0.06673850  0.14807036  0.07267584  1
  N  N7  8  0.06397117  0.38014389  0.04323010  1
  N  N8  8  0.16385743  0.16477232  0.87258272  1
  O  O9  8  -0.09893454  -0.24466934  0.92758653  1
  O  O10  8  -0.08970345  -0.21840348  0.15818344  1
  O  O11  8  -0.05106267  0.44809477  0.03009169  1
  O  O12  8  0.07707384  0.68951983  0.77240198  1
