###############################################################################################
#
# CIF file generated by modified CIFWriter class 
# in pymatgen (v2025.03.10) https://pymatgen.org/
#
###############################################################################################
data_MACE-OFF23(L)_be0072be0ea9fc1
_symmetry_space_group_name_H-M   P4_22_12
_cell_length_a   11.86835107
_cell_length_b   11.86835107
_cell_length_c   8.96270729
_cell_angle_alpha   90.00000000
_cell_angle_beta   90.00000000
_cell_angle_gamma   90.00000000
_symmetry_Int_Tables_number   94
_chemical_formula_moiety   'C3 H2 N4 O4'
_chemical_formula_sum   'H16 C24 N32 O32'
_cell_volume   1262.46684717
_cell_formula_units_Z   8
loop_
 _symmetry_equiv_pos_site_id
 _symmetry_equiv_pos_as_xyz
  1  'x, y, z'
  2  '-y+1/2, x+1/2, z+1/2'
  3  '-x, -y, z'
  4  'y+1/2, -x+1/2, z+1/2'
  5  'x+1/2, -y+1/2, -z+1/2'
  6  '-y, -x, -z'
  7  '-x+1/2, y+1/2, -z+1/2'
  8  'y, x, -z'
loop_
 _atom_site_type_symbol
 _atom_site_label
 _atom_site_symmetry_multiplicity
 _atom_site_fract_x
 _atom_site_fract_y
 _atom_site_fract_z
 _atom_site_occupancy
  H  H0  8  0.05264436  0.79689872  0.78352895  1
  H  H1  8  0.23736751  0.75143011  0.33041175  1
  C  C2  8  0.09721695  0.66761635  0.93711414  1
  C  C3  8  0.13236789  0.24544761  0.34942076  1
  C  C4  8  0.21337144  0.71873836  0.76331929  1
  N  N5  8  -0.00425562  0.66253493  1.02670889  1
  N  N6  8  0.06833393  0.14434955  0.32164330  1
  N  N7  8  0.10077824  0.31798934  0.45795219  1
  N  N8  8  0.11028358  0.74044462  0.82166659  1
  O  O9  8  -0.08885414  0.70571545  0.97534245  1
  O  O10  8  -0.01869592  0.13094092  0.38983471  1
  O  O11  8  0.00262400  0.61601549  1.14655486  1
  O  O12  8  0.08094698  0.10465540  0.77402062  1
