###############################################################################################
#
# CIF file generated by modified CIFWriter class 
# in pymatgen (v2025.03.10) https://pymatgen.org/
#
###############################################################################################
data_MACE-OFF23(L)_bfb85a58188eed8
_symmetry_space_group_name_H-M   P4_12_12
_cell_length_a   9.63964078
_cell_length_b   9.63964078
_cell_length_c   15.32897179
_cell_angle_alpha   90.00000000
_cell_angle_beta   90.00000000
_cell_angle_gamma   90.00000000
_symmetry_Int_Tables_number   92
_chemical_formula_moiety   'C3 H2 N4 O4'
_chemical_formula_sum   'H16 C24 N32 O32'
_cell_volume   1424.40905401
_cell_formula_units_Z   8
loop_
 _symmetry_equiv_pos_site_id
 _symmetry_equiv_pos_as_xyz
  1  'x, y, z'
  2  '-y+1/2, x+1/2, z+1/4'
  3  '-x, -y, z+1/2'
  4  'y+1/2, -x+1/2, z+3/4'
  5  'x+1/2, -y+1/2, -z+3/4'
  6  '-y, -x, -z+1/2'
  7  '-x+1/2, y+1/2, -z+1/4'
  8  'y, x, -z'
loop_
 _atom_site_type_symbol
 _atom_site_label
 _atom_site_symmetry_multiplicity
 _atom_site_fract_x
 _atom_site_fract_y
 _atom_site_fract_z
 _atom_site_occupancy
  H  H0  8  -0.00735723  0.28747029  0.08435344  1
  H  H1  8  0.01485695  0.08059134  0.18624779  1
  C  C2  8  0.06268680  0.17989381  0.19698494  1
  C  C3  8  0.10872633  0.62659081  0.42313704  1
  C  C4  8  0.14833193  0.22893544  0.26118272  1
  N  N5  8  -0.02534952  0.63918836  0.38088749  1
  N  N6  8  0.05014896  0.28719565  0.14057606  1
  N  N7  8  0.13899048  0.68838833  0.49606922  1
  N  N8  8  0.15521022  0.19700461  0.66281810  1
  O  O9  8  -0.11312040  0.70352330  0.42028320  1
  O  O10  8  -0.03898161  0.58612070  0.30953202  1
  O  O11  8  0.03897125  0.15061764  0.65171352  1
  O  O12  8  0.21274107  0.28028630  0.61616696  1
