###############################################################################################
#
# CIF file generated by modified CIFWriter class 
# in pymatgen (v2025.03.10) https://pymatgen.org/
#
###############################################################################################
data_MACE-OFF23(L)_c7013b46c135dd
_symmetry_space_group_name_H-M   P4_32_12
_cell_length_a   10.03684410
_cell_length_b   10.03684410
_cell_length_c   12.34445183
_cell_angle_alpha   90.00000000
_cell_angle_beta   90.00000000
_cell_angle_gamma   90.00000000
_symmetry_Int_Tables_number   96
_chemical_formula_moiety   'C3 H2 N4 O4'
_chemical_formula_sum   'H16 C24 N32 O32'
_cell_volume   1243.55834560
_cell_formula_units_Z   8
loop_
 _symmetry_equiv_pos_site_id
 _symmetry_equiv_pos_as_xyz
  1  'x, y, z'
  2  '-y+1/2, x+1/2, z+3/4'
  3  '-x, -y, z+1/2'
  4  'y+1/2, -x+1/2, z+1/4'
  5  'x+1/2, -y+1/2, -z+1/4'
  6  '-y, -x, -z+1/2'
  7  '-x+1/2, y+1/2, -z+3/4'
  8  'y, x, -z'
loop_
 _atom_site_type_symbol
 _atom_site_label
 _atom_site_symmetry_multiplicity
 _atom_site_fract_x
 _atom_site_fract_y
 _atom_site_fract_z
 _atom_site_occupancy
  H  H0  8  0.00876381  0.13720205  0.89038253  1
  H  H1  8  0.11179536  -0.24205613  0.14524887  1
  C  C2  8  -0.18541127  0.75463761  0.15004717  1
  C  C3  8  -0.06426586  0.21387989  0.90069657  1
  C  C4  8  -0.05391779  0.34391837  0.93238092  1
  N  N5  8  -0.19590735  0.19644715  0.87973539  1
  N  N6  8  -0.09272515  0.67339151  0.18223413  1
  N  N7  8  0.06918077  0.41174367  0.95849681  1
  N  N8  8  0.10610856  1.16296582  0.37396216  1
  O  O9  8  -0.14817037  0.32815621  0.18917791  1
  O  O10  8  0.02299229  0.43777266  0.24597359  1
  O  O11  8  0.05242011  1.24164490  0.43457422  1
  O  O12  8  0.05508090  1.06528114  0.33413587  1
