###############################################################################################
#
# CIF file generated by modified CIFWriter class 
# in pymatgen (v2025.03.10) https://pymatgen.org/
#
###############################################################################################
data_MACE-OFF23(L)_c81ba155b4e2d2b
_symmetry_space_group_name_H-M   P-4n2
_cell_length_a   9.47936813
_cell_length_b   9.47936813
_cell_length_c   16.47958229
_cell_angle_alpha   90.00000000
_cell_angle_beta   90.00000000
_cell_angle_gamma   90.00000000
_symmetry_Int_Tables_number   118
_chemical_formula_moiety   'C3 H2 N4 O4'
_chemical_formula_sum   'H16 C24 N32 O32'
_cell_volume   1480.82922843
_cell_formula_units_Z   8
loop_
 _symmetry_equiv_pos_site_id
 _symmetry_equiv_pos_as_xyz
  1  'x, y, z'
  2  'y, -x, -z'
  3  '-x, -y, z'
  4  '-y, x, -z'
  5  '-x+1/2, y+1/2, z+1/2'
  6  '-y+1/2, -x+1/2, -z+1/2'
  7  'x+1/2, -y+1/2, z+1/2'
  8  'y+1/2, x+1/2, -z+1/2'
loop_
 _atom_site_type_symbol
 _atom_site_label
 _atom_site_symmetry_multiplicity
 _atom_site_fract_x
 _atom_site_fract_y
 _atom_site_fract_z
 _atom_site_occupancy
  H  H0  8  0.04750427  0.34601263  0.99448204  1
  H  H1  8  0.10423603  0.32621836  0.64033146  1
  C  C2  8  0.16819223  0.74920802  0.41382292  1
  C  C3  8  0.17163428  0.28810379  0.59291236  1
  C  C4  8  0.21361638  0.77946434  -0.02061068  1
  N  N5  8  0.06046475  0.73457028  0.35238257  1
  N  N6  8  0.14062766  0.30289489  0.97685179  1
  N  N7  8  0.15472120  0.82884923  -0.09671227  1
  N  N8  8  0.16225992  0.67732883  0.48521024  1
  O  O9  8  -0.04093638  0.66133170  0.36833986  1
  O  O10  8  0.04663183  0.16793633  1.11110755  1
  O  O11  8  0.07914637  0.79711788  0.28924921  1
  O  O12  8  0.09491873  0.74246213  -0.13851384  1
