###############################################################################################
#
# CIF file generated by modified CIFWriter class 
# in pymatgen (v2025.03.10) https://pymatgen.org/
#
###############################################################################################
data_MACE-OFF23(L)_ca0012f7a6d945f
_symmetry_space_group_name_H-M   P4_12_12
_cell_length_a   7.37190111
_cell_length_b   7.37190111
_cell_length_c   24.50687850
_cell_angle_alpha   90.00000000
_cell_angle_beta   90.00000000
_cell_angle_gamma   90.00000000
_symmetry_Int_Tables_number   92
_chemical_formula_moiety   'C3 H2 N4 O4'
_chemical_formula_sum   'H16 C24 N32 O32'
_cell_volume   1331.82449754
_cell_formula_units_Z   8
loop_
 _symmetry_equiv_pos_site_id
 _symmetry_equiv_pos_as_xyz
  1  'x, y, z'
  2  '-y+1/2, x+1/2, z+1/4'
  3  '-x, -y, z+1/2'
  4  'y+1/2, -x+1/2, z+3/4'
  5  'x+1/2, -y+1/2, -z+3/4'
  6  '-y, -x, -z+1/2'
  7  '-x+1/2, y+1/2, -z+1/4'
  8  'y, x, -z'
loop_
 _atom_site_type_symbol
 _atom_site_label
 _atom_site_symmetry_multiplicity
 _atom_site_fract_x
 _atom_site_fract_y
 _atom_site_fract_z
 _atom_site_occupancy
  H  H0  8  0.10748169  -0.15604390  0.30052399  1
  H  H1  8  0.12971930  0.16446087  0.25435079  1
  C  C2  8  -0.03986045  0.18258688  0.68550771  1
  C  C3  8  -0.01793474  0.29388947  0.64123213  1
  C  C4  8  0.20035227  0.72919271  0.93084729  1
  N  N5  8  -0.15045417  0.32418583  0.59893769  1
  N  N6  8  0.08736146  0.83699487  0.55070473  1
  N  N7  8  0.12421011  0.18660204  0.71027445  1
  N  N8  8  0.13116606  0.64941667  0.88844883  1
  O  O9  8  0.01101773  0.96752592  0.56953657  1
  O  O10  8  0.02729410  0.73262528  0.51682899  1
  O  O11  8  0.07570897  0.39010510  0.81153496  1
  O  O12  8  0.20506175  0.25526916  0.14739002  1
