###############################################################################################
#
# CIF file generated by modified CIFWriter class 
# in pymatgen (v2025.03.10) https://pymatgen.org/
#
###############################################################################################
data_MACE-OFF23(L)_cb2e0b7f33c54a7
_symmetry_space_group_name_H-M   P4_2/n
_cell_length_a   15.25113376
_cell_length_b   15.25113376
_cell_length_c   5.68128741
_cell_angle_alpha   90.00000000
_cell_angle_beta   90.00000000
_cell_angle_gamma   90.00000000
_symmetry_Int_Tables_number   86
_chemical_formula_moiety   'C3 H2 N4 O4'
_chemical_formula_sum   'H16 C24 N32 O32'
_cell_volume   1321.45086885
_cell_formula_units_Z   8
loop_
 _symmetry_equiv_pos_site_id
 _symmetry_equiv_pos_as_xyz
  1  'x, y, z'
  2  '-y+1/2, x+1/2, z+1/2'
  3  '-x, -y, z'
  4  'y+1/2, -x+1/2, z+1/2'
  5  '-x+1/2, -y+1/2, -z+1/2'
  6  'y, -x, -z'
  7  'x+1/2, y+1/2, -z+1/2'
  8  '-y, x, -z'
loop_
 _atom_site_type_symbol
 _atom_site_label
 _atom_site_symmetry_multiplicity
 _atom_site_fract_x
 _atom_site_fract_y
 _atom_site_fract_z
 _atom_site_occupancy
  H  H0  8  0.02316410  0.62986169  0.49150063  1
  H  H1  8  0.03354038  0.79770010  0.49672497  1
  C  C2  8  0.08267868  0.66695827  0.49415745  1
  C  C3  8  0.14184372  0.33120542  0.99559843  1
  C  C4  8  0.17102621  0.77772986  0.49975914  1
  N  N5  8  0.05305709  0.29910298  0.99329366  1
  N  N6  8  0.08535078  0.75557843  0.49688337  1
  N  N7  8  0.13141137  0.19732149  0.49678828  1
  N  N8  8  0.21101294  0.27591031  0.99904036  1
  O  O9  8  -0.00496137  0.35404465  0.99255143  1
  O  O10  8  0.04165715  0.22032660  0.99203861  1
  O  O11  8  0.07674235  0.13911717  0.49534465  1
  O  O12  8  0.11453793  0.27534585  0.49563237  1
