###############################################################################################
#
# CIF file generated by modified CIFWriter class 
# in pymatgen (v2025.03.10) https://pymatgen.org/
#
###############################################################################################
data_MACE-OFF23(L)_cb35a58343e52a5
_symmetry_space_group_name_H-M   P-4c2
_cell_length_a   8.75425743
_cell_length_b   8.75425743
_cell_length_c   21.56593658
_cell_angle_alpha   90.00000000
_cell_angle_beta   90.00000000
_cell_angle_gamma   90.00000000
_symmetry_Int_Tables_number   116
_chemical_formula_moiety   'C3 H2 N4 O4'
_chemical_formula_sum   'H16 C24 N32 O32'
_cell_volume   1652.74917983
_cell_formula_units_Z   8
loop_
 _symmetry_equiv_pos_site_id
 _symmetry_equiv_pos_as_xyz
  1  'x, y, z'
  2  'y, -x, -z'
  3  '-x, -y, z'
  4  '-y, x, -z'
  5  '-x, y, z+1/2'
  6  '-y, -x, -z+1/2'
  7  'x, -y, z+1/2'
  8  'y, x, -z+1/2'
loop_
 _atom_site_type_symbol
 _atom_site_label
 _atom_site_symmetry_multiplicity
 _atom_site_fract_x
 _atom_site_fract_y
 _atom_site_fract_z
 _atom_site_occupancy
  H  H0  8  0.28439458  0.69083237  0.38104774  1
  H  H1  8  0.32246150  0.39825162  -0.00747327  1
  C  C2  8  0.08616682  0.68753843  1.08357632  1
  C  C3  8  0.14740339  0.33979326  0.49135605  1
  C  C4  8  0.28220618  0.32568483  0.52293601  1
  N  N5  8  0.00376847  0.30867476  0.64197518  1
  N  N6  8  0.02407503  0.33029182  0.52911659  1
  N  N7  8  0.13317557  0.36640422  0.42563264  1
  N  N8  8  0.23980827  0.30752637  0.58274951  1
  O  O9  8  -0.13151108  0.33808898  0.64003878  1
  O  O10  8  0.01673870  0.32599862  0.40009175  1
  O  O11  8  0.07832568  0.27948748  0.68762005  1
  O  O12  8  0.24045154  0.42928882  0.40036056  1
