###############################################################################################
#
# CIF file generated by modified CIFWriter class 
# in pymatgen (v2025.03.10) https://pymatgen.org/
#
###############################################################################################
data_MACE-OFF23(L)_cbbf3892771ff81
_symmetry_space_group_name_H-M   P42_12
_cell_length_a   14.69515455
_cell_length_b   14.69515455
_cell_length_c   6.80968911
_cell_angle_alpha   90.00000000
_cell_angle_beta   90.00000000
_cell_angle_gamma   90.00000000
_symmetry_Int_Tables_number   90
_chemical_formula_moiety   'C3 H2 N4 O4'
_chemical_formula_sum   'H16 C24 N32 O32'
_cell_volume   1470.53579867
_cell_formula_units_Z   8
loop_
 _symmetry_equiv_pos_site_id
 _symmetry_equiv_pos_as_xyz
  1  'x, y, z'
  2  '-y+1/2, x+1/2, z'
  3  '-x, -y, z'
  4  'y+1/2, -x+1/2, z'
  5  'x+1/2, -y+1/2, -z'
  6  '-y, -x, -z'
  7  '-x+1/2, y+1/2, -z'
  8  'y, x, -z'
loop_
 _atom_site_type_symbol
 _atom_site_label
 _atom_site_symmetry_multiplicity
 _atom_site_fract_x
 _atom_site_fract_y
 _atom_site_fract_z
 _atom_site_occupancy
  H  H0  8  0.13543700  0.74910316  0.22590784  1
  H  H1  8  0.18601677  0.30245314  0.55312360  1
  C  C2  8  0.07437872  0.25758618  0.38542491  1
  C  C3  8  0.11585371  0.31189251  0.11879000  1
  C  C4  8  0.17064025  0.68589902  0.24524107  1
  N  N5  8  0.02922981  0.20383765  0.53600811  1
  N  N6  8  0.04567598  0.26747212  0.20625200  1
  N  N7  8  0.11402817  0.33579970  -0.08683150  1
  N  N8  8  0.15742978  0.29404159  0.41874366  1
  O  O9  8  -0.05102240  0.18877343  0.51828109  1
  O  O10  8  0.04159159  0.35046295  -0.16368448  1
  O  O11  8  0.07753496  0.17686666  0.66891866  1
  O  O12  8  0.16049665  0.68784390  -0.17035837  1
