###############################################################################################
#
# CIF file generated by modified CIFWriter class 
# in pymatgen (v2025.03.10) https://pymatgen.org/
#
###############################################################################################
data_MACE-OFF23(L)_cc0d66f3d060c56
_symmetry_space_group_name_H-M   Iba2
_cell_length_a   35.92935437
_cell_length_b   6.11135085
_cell_length_c   6.09602614
_cell_angle_alpha   90.00000000
_cell_angle_beta   90.00000000
_cell_angle_gamma   90.00000000
_symmetry_Int_Tables_number   45
_chemical_formula_moiety   'C3 H2 N4 O4'
_chemical_formula_sum   'H16 C24 N32 O32'
_cell_volume   1338.54646286
_cell_formula_units_Z   8
loop_
 _symmetry_equiv_pos_site_id
 _symmetry_equiv_pos_as_xyz
  1  'x, y, z'
  2  '-x, -y, z'
  3  'x, -y, z+1/2'
  4  '-x, y, z+1/2'
  5  'x+1/2, y+1/2, z+1/2'
  6  '-x+1/2, -y+1/2, z+1/2'
  7  'x+1/2, -y+1/2, z'
  8  '-x+1/2, y+1/2, z'
loop_
 _atom_site_type_symbol
 _atom_site_label
 _atom_site_symmetry_multiplicity
 _atom_site_fract_x
 _atom_site_fract_y
 _atom_site_fract_z
 _atom_site_occupancy
  H  H0  8  0.14036669  0.31592206  0.55279411  1
  H  H1  8  0.20436162  0.49647679  0.52069610  1
  C  C2  8  0.12193264  0.33294101  0.06440721  1
  C  C3  8  0.14544566  0.48937789  0.55029223  1
  C  C4  8  0.17500551  0.20194695  0.03708728  1
  N  N5  8  0.08150342  0.34500237  0.08750231  1
  N  N6  8  0.14033909  0.14198157  0.05560133  1
  N  N7  8  0.17991586  0.42219140  0.03213525  1
  N  N8  8  0.20536109  0.05402830  0.02111450  1
  O  O9  8  0.06443096  0.17610899  0.08787648  1
  O  O10  8  0.06900582  0.47107364  0.60422356  1
  O  O11  8  0.19856830  -0.14164123  0.03229416  1
  O  O12  8  0.23648674  0.12943384  -0.00444329  1
