###############################################################################################
#
# CIF file generated by modified CIFWriter class 
# in pymatgen (v2025.03.10) https://pymatgen.org/
#
###############################################################################################
data_MACE-OFF23(L)_cfea460fa0657ff
_symmetry_space_group_name_H-M   Pnna
_cell_length_a   11.41964691
_cell_length_b   15.55848881
_cell_length_c   8.39242709
_cell_angle_alpha   90.00000000
_cell_angle_beta   90.00000000
_cell_angle_gamma   90.00000000
_symmetry_Int_Tables_number   52
_chemical_formula_moiety   'C3 H2 N4 O4'
_chemical_formula_sum   'H16 C24 N32 O32'
_cell_volume   1491.10307058
_cell_formula_units_Z   8
loop_
 _symmetry_equiv_pos_site_id
 _symmetry_equiv_pos_as_xyz
  1  'x, y, z'
  2  '-x, -y, -z'
  3  '-x+1/2, -y, z'
  4  'x+1/2, y, -z'
  5  'x, -y+1/2, -z+1/2'
  6  '-x, y+1/2, z+1/2'
  7  '-x+1/2, y+1/2, -z+1/2'
  8  'x+1/2, -y+1/2, z+1/2'
loop_
 _atom_site_type_symbol
 _atom_site_label
 _atom_site_symmetry_multiplicity
 _atom_site_fract_x
 _atom_site_fract_y
 _atom_site_fract_z
 _atom_site_occupancy
  H  H0  8  0.15706612  0.05045947  0.93658557  1
  H  H1  8  0.17613213  0.85902368  0.81074350  1
  C  C2  8  0.07076097  0.41423068  0.79403992  1
  C  C3  8  0.15581150  0.41938346  0.67882900  1
  C  C4  8  0.20897226  0.15778684  0.61752007  1
  N  N5  8  -0.04413907  0.04671848  0.71240648  1
  N  N6  8  0.10379430  0.13426654  0.57992232  1
  N  N7  8  0.21829345  0.71640708  0.97321136  1
  N  N8  8  0.24573425  0.12733981  0.76030603  1
  O  O9  8  -0.10666103  0.05309730  0.59659700  1
  O  O10  8  -0.06978670  0.49002234  0.66426850  1
  O  O11  8  0.12246501  0.73272114  0.91657593  1
  O  O12  8  0.24091629  0.24746790  0.40784555  1
