###############################################################################################
#
# CIF file generated by modified CIFWriter class 
# in pymatgen (v2025.03.10) https://pymatgen.org/
#
###############################################################################################
data_MACE-OFF23(L)_d0e818ecd8187de
_symmetry_space_group_name_H-M   C2/c
_cell_length_a   15.78297565
_cell_length_b   12.51213383
_cell_length_c   6.03459876
_cell_angle_alpha   90.00000000
_cell_angle_beta   105.12577363
_cell_angle_gamma   90.00000000
_symmetry_Int_Tables_number   15
_chemical_formula_moiety   'C3 H2 N4 O4'
_chemical_formula_sum   'H16 C24 N32 O32'
_cell_volume   1150.41854658
_cell_formula_units_Z   8
loop_
 _symmetry_equiv_pos_site_id
 _symmetry_equiv_pos_as_xyz
  1  'x, y, z'
  2  '-x, -y, -z'
  3  '-x, y, -z+1/2'
  4  'x, -y, z+1/2'
  5  'x+1/2, y+1/2, z'
  6  '-x+1/2, -y+1/2, -z'
  7  '-x+1/2, y+1/2, -z+1/2'
  8  'x+1/2, -y+1/2, z+1/2'
loop_
 _atom_site_type_symbol
 _atom_site_label
 _atom_site_symmetry_multiplicity
 _atom_site_fract_x
 _atom_site_fract_y
 _atom_site_fract_z
 _atom_site_occupancy
  H  H0  8  0.16495190  0.87569430  0.15932959  1
  H  H1  8  0.20817283  0.24411486  0.19860168  1
  C  C2  8  0.08381126  0.26339415  0.58393782  1
  C  C3  8  0.18196703  0.62472474  0.19548722  1
  C  C4  8  0.22393535  0.72264461  0.23285947  1
  N  N5  8  0.00101776  0.20850853  0.50009642  1
  N  N6  8  0.09488456  0.36557893  0.60269083  1
  N  N7  8  0.15911191  0.20581438  0.65979263  1
  N  N8  8  0.22165211  0.52185606  0.24483217  1
  O  O9  8  -0.06495885  0.73706071  -0.06488202  1
  O  O10  8  0.00356415  0.11185979  0.50090585  1
  O  O11  8  0.17706602  0.44223601  0.19270424  1
  O  O12  8  0.19930356  0.98096754  0.66059458  1
