###############################################################################################
#
# CIF file generated by modified CIFWriter class 
# in pymatgen (v2025.03.10) https://pymatgen.org/
#
###############################################################################################
data_MACE-OFF23(L)_d186bed8564a99c
_symmetry_space_group_name_H-M   C2/c
_cell_length_a   11.73586919
_cell_length_b   9.89753263
_cell_length_c   10.63437993
_cell_angle_alpha   90.00000000
_cell_angle_beta   99.42273378
_cell_angle_gamma   90.00000000
_symmetry_Int_Tables_number   15
_chemical_formula_moiety   'C3 H2 N4 O4'
_chemical_formula_sum   'H16 C24 N32 O32'
_cell_volume   1218.58174728
_cell_formula_units_Z   8
loop_
 _symmetry_equiv_pos_site_id
 _symmetry_equiv_pos_as_xyz
  1  'x, y, z'
  2  '-x, -y, -z'
  3  '-x, y, -z+1/2'
  4  'x, -y, z+1/2'
  5  'x+1/2, y+1/2, z'
  6  '-x+1/2, -y+1/2, -z'
  7  '-x+1/2, y+1/2, -z+1/2'
  8  'x+1/2, -y+1/2, z+1/2'
loop_
 _atom_site_type_symbol
 _atom_site_label
 _atom_site_symmetry_multiplicity
 _atom_site_fract_x
 _atom_site_fract_y
 _atom_site_fract_z
 _atom_site_occupancy
  H  H0  8  0.13814356  1.11715902  0.30804772  1
  H  H1  8  0.14153852  0.13729698  0.80048423  1
  C  C2  8  0.13314194  -0.09508766  0.59699320  1
  C  C3  8  0.13463318  0.11463753  0.59855748  1
  C  C4  8  0.13731948  1.05889887  0.22257648  1
  N  N5  8  0.13164438  -0.22945818  0.54970164  1
  N  N6  8  0.13193173  0.01413671  0.51949811  1
  N  N7  8  0.13509617  0.25511020  0.56333148  1
  N  N8  8  0.13794368  0.92343495  0.22152175  1
  O  O9  8  0.11533817  1.24605736  -0.06668982  1
  O  O10  8  0.12455719  0.28121573  0.44987408  1
  O  O11  8  0.14634142  1.32110975  0.12575707  1
  O  O12  8  0.14643476  0.66314802  0.14889777  1
