###############################################################################################
#
# CIF file generated by modified CIFWriter class 
# in pymatgen (v2025.03.10) https://pymatgen.org/
#
###############################################################################################
data_MACE-OFF23(L)_d54598489836968
_symmetry_space_group_name_H-M   P-42_1c
_cell_length_a   9.94142550
_cell_length_b   9.94142550
_cell_length_c   12.05145674
_cell_angle_alpha   90.00000000
_cell_angle_beta   90.00000000
_cell_angle_gamma   90.00000000
_symmetry_Int_Tables_number   114
_chemical_formula_moiety   'C3 H2 N4 O4'
_chemical_formula_sum   'H16 C24 N32 O32'
_cell_volume   1191.06886111
_cell_formula_units_Z   8
loop_
 _symmetry_equiv_pos_site_id
 _symmetry_equiv_pos_as_xyz
  1  'x, y, z'
  2  'y, -x, -z'
  3  '-x, -y, z'
  4  '-y, x, -z'
  5  'x+1/2, -y+1/2, -z+1/2'
  6  'y+1/2, x+1/2, z+1/2'
  7  '-x+1/2, y+1/2, -z+1/2'
  8  '-y+1/2, -x+1/2, z+1/2'
loop_
 _atom_site_type_symbol
 _atom_site_label
 _atom_site_symmetry_multiplicity
 _atom_site_fract_x
 _atom_site_fract_y
 _atom_site_fract_z
 _atom_site_occupancy
  H  H0  8  -0.09120321  0.37494694  0.26180591  1
  H  H1  8  -0.01242320  0.23456050  0.09597190  1
  C  C2  8  0.02085574  0.22269812  0.18015581  1
  C  C3  8  0.04336962  0.25422017  0.35735454  1
  C  C4  8  0.11447167  0.13889041  0.22707828  1
  N  N5  8  -0.02487829  0.29682282  0.26629877  1
  N  N6  8  0.01896494  0.31155111  0.46683410  1
  N  N7  8  0.03722940  0.80912825  0.82966622  1
  N  N8  8  0.12929478  0.15953352  0.33784029  1
  O  O9  8  -0.08251368  0.37923244  0.47661693  1
  O  O10  8  -0.01321998  0.71310530  0.78084797  1
  O  O11  8  0.00528568  0.84500153  0.92188772  1
  O  O12  8  0.09940471  0.28712383  0.53880756  1
