###############################################################################################
#
# CIF file generated by modified CIFWriter class 
# in pymatgen (v2025.03.10) https://pymatgen.org/
#
###############################################################################################
data_MACE-OFF23(L)_d680833fc75278c
_symmetry_space_group_name_H-M   P-4b2
_cell_length_a   10.31880643
_cell_length_b   10.31880643
_cell_length_c   11.03865387
_cell_angle_alpha   90.00000000
_cell_angle_beta   90.00000000
_cell_angle_gamma   90.00000000
_symmetry_Int_Tables_number   117
_chemical_formula_moiety   'C3 H2 N4 O4'
_chemical_formula_sum   'H16 C24 N32 O32'
_cell_volume   1175.37120605
_cell_formula_units_Z   8
loop_
 _symmetry_equiv_pos_site_id
 _symmetry_equiv_pos_as_xyz
  1  'x, y, z'
  2  'y, -x, -z'
  3  '-x, -y, z'
  4  '-y, x, -z'
  5  '-x+1/2, y+1/2, z'
  6  '-y+1/2, -x+1/2, -z'
  7  'x+1/2, -y+1/2, z'
  8  'y+1/2, x+1/2, -z'
loop_
 _atom_site_type_symbol
 _atom_site_label
 _atom_site_symmetry_multiplicity
 _atom_site_fract_x
 _atom_site_fract_y
 _atom_site_fract_z
 _atom_site_occupancy
  H  H0  8  -0.02500472  0.65567732  0.16163824  1
  H  H1  8  -0.01631482  0.85243866  0.29693531  1
  C  C2  8  0.06182905  0.69685124  0.19854610  1
  C  C3  8  0.16382480  0.69038886  0.81230999  1
  C  C4  8  0.17464385  0.18813762  0.70039836  1
  N  N5  8  0.05574764  0.74326692  0.87759199  1
  N  N6  8  0.06287678  0.80127776  0.27167110  1
  N  N7  8  0.06313422  0.22608377  0.62884245  1
  N  N8  8  0.23101489  0.24441260  0.25082547  1
  O  O9  8  -0.01331927  0.66715696  0.93242113  1
  O  O10  8  -0.00638329  0.13897557  0.59219270  1
  O  O11  8  0.03730879  0.85950296  0.87363447  1
  O  O12  8  0.04608035  0.34060049  0.61250466  1
