###############################################################################################
#
# CIF file generated by modified CIFWriter class 
# in pymatgen (v2025.03.10) https://pymatgen.org/
#
###############################################################################################
data_MACE-OFF23(L)_d7743378a00ee9c
_symmetry_space_group_name_H-M   Pbca
_cell_length_a   6.31759175
_cell_length_b   10.31171734
_cell_length_c   18.33758529
_cell_angle_alpha   90.00000000
_cell_angle_beta   90.00000000
_cell_angle_gamma   90.00000000
_symmetry_Int_Tables_number   61
_chemical_formula_moiety   'C3 H2 N4 O4'
_chemical_formula_sum   'H16 C24 N32 O32'
_cell_volume   1194.60603541
_cell_formula_units_Z   8
loop_
 _symmetry_equiv_pos_site_id
 _symmetry_equiv_pos_as_xyz
  1  'x, y, z'
  2  '-x, -y, -z'
  3  '-x+1/2, -y, z+1/2'
  4  'x+1/2, y, -z+1/2'
  5  'x+1/2, -y+1/2, -z'
  6  '-x+1/2, y+1/2, z'
  7  '-x, y+1/2, -z+1/2'
  8  'x, -y+1/2, z+1/2'
loop_
 _atom_site_type_symbol
 _atom_site_label
 _atom_site_symmetry_multiplicity
 _atom_site_fract_x
 _atom_site_fract_y
 _atom_site_fract_z
 _atom_site_occupancy
  H  H0  8  -0.07231558  0.51203763  0.08232237  1
  H  H1  8  0.21863323  -0.02354642  0.14509034  1
  C  C2  8  0.01711735  0.71973395  0.09792120  1
  C  C3  8  0.03251831  0.91276333  0.60074484  1
  C  C4  8  0.19759246  0.18245101  0.14992480  1
  N  N5  8  -0.15167814  0.79403179  0.06584105  1
  N  N6  8  -0.00149743  0.19524116  0.18830121  1
  N  N7  8  0.18616172  0.72087779  0.62848859  1
  N  N8  8  0.21944720  0.56542865  0.13447036  1
  O  O9  8  -0.12829795  0.58974024  0.56074803  1
  O  O10  8  -0.08694903  0.09409428  0.20683922  1
  O  O11  8  -0.06869797  0.30286658  0.19922045  1
  O  O12  8  0.19248302  0.73445654  0.45464537  1
