###############################################################################################
#
# CIF file generated by modified CIFWriter class 
# in pymatgen (v2025.03.10) https://pymatgen.org/
#
###############################################################################################
data_MACE-OFF23(L)_d9edfa008989b93
_symmetry_space_group_name_H-M   Pbca
_cell_length_a   15.69788177
_cell_length_b   12.43463408
_cell_length_c   5.87760074
_cell_angle_alpha   90.00000000
_cell_angle_beta   90.00000000
_cell_angle_gamma   90.00000000
_symmetry_Int_Tables_number   61
_chemical_formula_moiety   'C3 H2 N4 O4'
_chemical_formula_sum   'H16 C24 N32 O32'
_cell_volume   1147.29247454
_cell_formula_units_Z   8
loop_
 _symmetry_equiv_pos_site_id
 _symmetry_equiv_pos_as_xyz
  1  'x, y, z'
  2  '-x, -y, -z'
  3  '-x, y+1/2, -z+1/2'
  4  'x, -y+1/2, z+1/2'
  5  '-x+1/2, -y, z+1/2'
  6  'x+1/2, y, -z+1/2'
  7  'x+1/2, -y+1/2, -z'
  8  '-x+1/2, y+1/2, z'
loop_
 _atom_site_type_symbol
 _atom_site_label
 _atom_site_symmetry_multiplicity
 _atom_site_fract_x
 _atom_site_fract_y
 _atom_site_fract_z
 _atom_site_occupancy
  H  H0  8  -0.04044668  0.47927341  0.24941413  1
  H  H1  8  0.08447571  0.34730967  0.25046800  1
  C  C2  8  0.02578905  0.50149579  0.25015521  1
  C  C3  8  0.06657269  0.59983236  0.25085430  1
  C  C4  8  0.16307791  0.48661294  0.25164080  1
  N  N5  8  0.02543162  0.70196292  0.25051111  1
  N  N6  8  0.08967141  0.42939889  0.25070833  1
  N  N7  8  0.15261377  0.58979816  0.25173584  1
  N  N8  8  0.24426624  0.43055719  0.25204643  1
  O  O9  8  -0.05306900  0.70190661  0.24971739  1
  O  O10  8  0.06745021  0.71629698  0.75091520  1
  O  O11  8  0.19169683  -0.01381466  0.25210519  1
  O  O12  8  0.24076262  0.33409029  0.25220977  1
