###############################################################################################
#
# CIF file generated by modified CIFWriter class 
# in pymatgen (v2025.03.10) https://pymatgen.org/
#
###############################################################################################
data_MACE-OFF23(L)_dba966792ebb465
_symmetry_space_group_name_H-M   P422
_cell_length_a   11.81788279
_cell_length_b   11.81788279
_cell_length_c   12.75236243
_cell_angle_alpha   90.00000000
_cell_angle_beta   90.00000000
_cell_angle_gamma   90.00000000
_symmetry_Int_Tables_number   89
_chemical_formula_moiety   'C3 H2 N4 O4'
_chemical_formula_sum   'H16 C24 N32 O32'
_cell_volume   1781.02495054
_cell_formula_units_Z   8
loop_
 _symmetry_equiv_pos_site_id
 _symmetry_equiv_pos_as_xyz
  1  'x, y, z'
  2  '-y, x, z'
  3  '-x, -y, z'
  4  'y, -x, z'
  5  'x, -y, -z'
  6  '-y, -x, -z'
  7  '-x, y, -z'
  8  'y, x, -z'
loop_
 _atom_site_type_symbol
 _atom_site_label
 _atom_site_symmetry_multiplicity
 _atom_site_fract_x
 _atom_site_fract_y
 _atom_site_fract_z
 _atom_site_occupancy
  H  H0  8  0.09678897  0.25344944  0.51655972  1
  H  H1  8  0.23887466  0.58627979  0.47773359  1
  C  C2  8  0.04701989  0.69170687  0.33166543  1
  C  C3  8  0.16001745  0.44134674  0.68100718  1
  C  C4  8  0.17963091  0.39534352  0.58369756  1
  N  N5  8  -0.04373697  0.22772839  0.68494855  1
  N  N6  8  0.07783783  0.38602638  0.73399665  1
  N  N7  8  0.10452287  0.30941459  0.57653094  1
  N  N8  8  0.21759101  0.53845752  0.72458920  1
  O  O9  8  -0.08180488  0.21513296  0.77088517  1
  O  O10  8  -0.07522175  0.17569497  0.60589152  1
  O  O11  8  0.21152707  0.55634579  0.81672372  1
  O  O12  8  0.26986126  0.40268880  0.33903691  1
