###############################################################################################
#
# CIF file generated by modified CIFWriter class 
# in pymatgen (v2025.03.10) https://pymatgen.org/
#
###############################################################################################
data_MACE-OFF23(L)_e344165ae6f9591
_symmetry_space_group_name_H-M   P4_122
_cell_length_a   9.95588640
_cell_length_b   9.95588640
_cell_length_c   13.23174472
_cell_angle_alpha   90.00000000
_cell_angle_beta   90.00000000
_cell_angle_gamma   90.00000000
_symmetry_Int_Tables_number   91
_chemical_formula_moiety   'C3 H2 N4 O4'
_chemical_formula_sum   'H16 C24 N32 O32'
_cell_volume   1311.52622377
_cell_formula_units_Z   8
loop_
 _symmetry_equiv_pos_site_id
 _symmetry_equiv_pos_as_xyz
  1  'x, y, z'
  2  '-y, x, z+1/4'
  3  '-x, -y, z+1/2'
  4  'y, -x, z+3/4'
  5  'x, -y, -z+1/2'
  6  '-y, -x, -z+1/4'
  7  '-x, y, -z'
  8  'y, x, -z+3/4'
loop_
 _atom_site_type_symbol
 _atom_site_label
 _atom_site_symmetry_multiplicity
 _atom_site_fract_x
 _atom_site_fract_y
 _atom_site_fract_z
 _atom_site_occupancy
  H  H0  8  0.04543539  0.57133560  0.86780134  1
  H  H1  8  0.29230858  0.44912727  0.57667095  1
  C  C2  8  0.11273698  0.73506701  0.77904699  1
  C  C3  8  0.25272539  0.37713263  0.62883114  1
  C  C4  8  0.27100189  0.31195401  0.07282395  1
  N  N5  8  -0.01683513  0.22728523  0.76297146  1
  N  N6  8  0.12276837  0.62786501  0.84165329  1
  N  N7  8  0.20063391  0.22447121  0.01513464  1
  N  N8  8  0.22590721  0.44756659  0.09016031  1
  O  O9  8  -0.10839521  0.30687114  0.74743399  1
  O  O10  8  -0.02628640  0.12327681  0.80831672  1
  O  O11  8  0.11891148  0.51828891  0.44775871  1
  O  O12  8  0.29679141  0.51841257  0.14136828  1
