###############################################################################################
#
# CIF file generated by modified CIFWriter class 
# in pymatgen (v2025.03.10) https://pymatgen.org/
#
###############################################################################################
data_MACE-OFF23(L)_e515f13be6a56fd
_symmetry_space_group_name_H-M   Pcca
_cell_length_a   19.39677059
_cell_length_b   8.99259391
_cell_length_c   7.20434824
_cell_angle_alpha   90.00000000
_cell_angle_beta   90.00000000
_cell_angle_gamma   90.00000000
_symmetry_Int_Tables_number   54
_chemical_formula_moiety   'C3 H2 N4 O4'
_chemical_formula_sum   'H16 C24 N32 O32'
_cell_volume   1256.63487594
_cell_formula_units_Z   8
loop_
 _symmetry_equiv_pos_site_id
 _symmetry_equiv_pos_as_xyz
  1  'x, y, z'
  2  '-x, -y, -z'
  3  '-x+1/2, -y, z'
  4  'x+1/2, y, -z'
  5  'x+1/2, -y, -z+1/2'
  6  '-x+1/2, y, z+1/2'
  7  '-x, y, -z+1/2'
  8  'x, -y, z+1/2'
loop_
 _atom_site_type_symbol
 _atom_site_label
 _atom_site_symmetry_multiplicity
 _atom_site_fract_x
 _atom_site_fract_y
 _atom_site_fract_z
 _atom_site_occupancy
  H  H0  8  0.24581535  0.19354736  0.45107541  1
  H  H1  8  0.24798322  0.34517260  0.15804219  1
  C  C2  8  0.13403406  0.30250463  0.17001907  1
  C  C3  8  0.13656572  0.19694317  0.42551146  1
  C  C4  8  0.20241792  0.29855706  0.21829924  1
  N  N5  8  0.09303171  0.24097198  0.30087352  1
  N  N6  8  0.10781147  0.36333128  -0.00221829  1
  N  N7  8  0.11971986  0.12475573  0.60004526  1
  N  N8  8  0.20331207  0.22766526  0.38333680  1
  O  O9  8  0.04721697  0.37069336  -0.02797585  1
  O  O10  8  0.06074812  0.11064653  0.64298914  1
  O  O11  8  0.15287993  0.40285295  -0.11356032  1
  O  O12  8  0.16995219  0.08414219  0.69310406  1
