###############################################################################################
#
# CIF file generated by modified CIFWriter class 
# in pymatgen (v2025.03.10) https://pymatgen.org/
#
###############################################################################################
data_MACE-OFF23(L)_e667e3730b611cb
_symmetry_space_group_name_H-M   P4_322
_cell_length_a   6.03818885
_cell_length_b   6.03818885
_cell_length_c   51.47805937
_cell_angle_alpha   90.00000000
_cell_angle_beta   90.00000000
_cell_angle_gamma   90.00000000
_symmetry_Int_Tables_number   95
_chemical_formula_moiety   'C3 H2 N4 O4'
_chemical_formula_sum   'H16 C24 N32 O32'
_cell_volume   1876.87586953
_cell_formula_units_Z   8
loop_
 _symmetry_equiv_pos_site_id
 _symmetry_equiv_pos_as_xyz
  1  'x, y, z'
  2  '-y, x, z+3/4'
  3  '-x, -y, z+1/2'
  4  'y, -x, z+1/4'
  5  'x, -y, -z+1/2'
  6  '-y, -x, -z+3/4'
  7  '-x, y, -z'
  8  'y, x, -z+1/4'
loop_
 _atom_site_type_symbol
 _atom_site_label
 _atom_site_symmetry_multiplicity
 _atom_site_fract_x
 _atom_site_fract_y
 _atom_site_fract_z
 _atom_site_occupancy
  H  H0  8  0.18572789  0.81036536  0.34113913  1
  H  H1  8  0.35331889  0.51158591  0.18438566  1
  C  C2  8  0.11851516  0.45431177  0.40203416  1
  C  C3  8  0.22085628  0.64017719  0.41134269  1
  C  C4  8  0.33674552  0.62337899  0.67449387  1
  N  N5  8  -0.06868060  0.45279380  0.38428373  1
  N  N6  8  0.19900684  0.53230843  0.81150070  1
  N  N7  8  0.21373545  0.73570557  0.08971031  1
  N  N8  8  0.39020714  0.44132387  0.07416370  1
  O  O9  8  -0.23025195  0.55922638  0.39068945  1
  O  O10  8  -0.04907358  0.64931000  0.13582985  1
  O  O11  8  0.00362537  0.49030453  0.80981111  1
  O  O12  8  0.29249887  0.30770536  0.69762391  1
