###############################################################################################
#
# CIF file generated by modified CIFWriter class 
# in pymatgen (v2025.03.10) https://pymatgen.org/
#
###############################################################################################
data_MACE-OFF23(L)_eddf6e0ca6cfc4d
_symmetry_space_group_name_H-M   C2/c
_cell_length_a   11.17914555
_cell_length_b   10.54341663
_cell_length_c   10.86953941
_cell_angle_alpha   90.00000000
_cell_angle_beta   60.66341494
_cell_angle_gamma   90.00000000
_symmetry_Int_Tables_number   15
_chemical_formula_moiety   'C3 H2 N4 O4'
_chemical_formula_sum   'H16 C24 N32 O32'
_cell_volume   1116.85391026
_cell_formula_units_Z   8
loop_
 _symmetry_equiv_pos_site_id
 _symmetry_equiv_pos_as_xyz
  1  'x, y, z'
  2  '-x, -y, -z'
  3  '-x, y, -z+1/2'
  4  'x, -y, z+1/2'
  5  'x+1/2, y+1/2, z'
  6  '-x+1/2, -y+1/2, -z'
  7  '-x+1/2, y+1/2, -z+1/2'
  8  'x+1/2, -y+1/2, z+1/2'
loop_
 _atom_site_type_symbol
 _atom_site_label
 _atom_site_symmetry_multiplicity
 _atom_site_fract_x
 _atom_site_fract_y
 _atom_site_fract_z
 _atom_site_occupancy
  H  H0  8  0.17646815  0.18581108  0.88164462  1
  H  H1  8  0.19102148  0.67898475  0.88352838  1
  C  C2  8  0.19077058  0.61182022  0.35959751  1
  C  C3  8  0.19924787  0.10873944  0.35946206  1
  C  C4  8  0.22042517  0.23511571  0.32251442  1
  N  N5  8  0.11862226  0.42180753  1.00637230  1
  N  N6  8  0.12804581  0.05934014  0.49893709  1
  N  N7  8  0.20851354  0.73485734  0.31875672  1
  N  N8  8  0.24449043  0.46811496  0.75524487  1
  O  O9  8  0.07633094  0.66482618  0.58989124  1
  O  O10  8  0.07859656  0.86548597  1.09548196  1
  O  O11  8  0.10544695  0.46550663  0.53637114  1
  O  O12  8  0.11953730  -0.05649774  0.51506263  1
