###############################################################################################
#
# CIF file generated by modified CIFWriter class 
# in pymatgen (v2025.03.10) https://pymatgen.org/
#
###############################################################################################
data_MACE-OFF23(L)_ef0001bb16db22a
_symmetry_space_group_name_H-M   P4_32_12
_cell_length_a   10.89904338
_cell_length_b   10.89904338
_cell_length_c   9.80728285
_cell_angle_alpha   90.00000000
_cell_angle_beta   90.00000000
_cell_angle_gamma   90.00000000
_symmetry_Int_Tables_number   96
_chemical_formula_moiety   'C3 H2 N4 O4'
_chemical_formula_sum   'H16 C24 N32 O32'
_cell_volume   1164.99876056
_cell_formula_units_Z   8
loop_
 _symmetry_equiv_pos_site_id
 _symmetry_equiv_pos_as_xyz
  1  'x, y, z'
  2  '-y+1/2, x+1/2, z+3/4'
  3  '-x, -y, z+1/2'
  4  'y+1/2, -x+1/2, z+1/4'
  5  'x+1/2, -y+1/2, -z+1/4'
  6  '-y, -x, -z+1/2'
  7  '-x+1/2, y+1/2, -z+3/4'
  8  'y, x, -z'
loop_
 _atom_site_type_symbol
 _atom_site_label
 _atom_site_symmetry_multiplicity
 _atom_site_fract_x
 _atom_site_fract_y
 _atom_site_fract_z
 _atom_site_occupancy
  H  H0  8  0.06138438  0.69516719  0.60255055  1
  H  H1  8  0.06930988  0.92996592  0.59234012  1
  C  C2  8  0.10786091  0.72999458  0.92682745  1
  C  C3  8  0.13017830  0.85299469  0.91483631  1
  C  C4  8  0.20267451  0.24597376  0.83403144  1
  N  N5  8  -0.01172176  0.67394964  0.93615634  1
  N  N6  8  0.07205423  0.22402408  0.83246656  1
  N  N7  8  0.13870971  0.74598034  0.59353427  1
  N  N8  8  0.16222447  0.28738396  0.17526557  1
  O  O9  8  -0.09389202  0.73650757  0.98393366  1
  O  O10  8  -0.02290718  0.57000917  0.89393881  1
  O  O11  8  0.00721383  0.31316790  0.84998127  1
  O  O12  8  0.03717554  0.11931013  0.81696722  1
