###############################################################################################
#
# CIF file generated by modified CIFWriter class 
# in pymatgen (v2025.03.10) https://pymatgen.org/
#
###############################################################################################
data_MACE-OFF23(L)_f68cd0b8948f8fc
_symmetry_space_group_name_H-M   Pban
_cell_length_a   19.89014726
_cell_length_b   13.05170524
_cell_length_c   6.25817264
_cell_angle_alpha   90.00000000
_cell_angle_beta   90.00000000
_cell_angle_gamma   90.00000000
_symmetry_Int_Tables_number   50
_chemical_formula_moiety   'C3 H2 N4 O4'
_chemical_formula_sum   'H16 C24 N32 O32'
_cell_volume   1624.62374079
_cell_formula_units_Z   8
loop_
 _symmetry_equiv_pos_site_id
 _symmetry_equiv_pos_as_xyz
  1  'x, y, z'
  2  '-x, -y, z'
  3  '-x, y, -z'
  4  'x, -y, -z'
  5  '-x+1/2, -y+1/2, -z'
  6  'x+1/2, y+1/2, -z'
  7  'x+1/2, -y+1/2, z'
  8  '-x+1/2, y+1/2, z'
loop_
 _atom_site_type_symbol
 _atom_site_label
 _atom_site_symmetry_multiplicity
 _atom_site_fract_x
 _atom_site_fract_y
 _atom_site_fract_z
 _atom_site_occupancy
  H  H0  8  0.20705146  0.24949369  0.27427428  1
  H  H1  8  0.23286626  0.05664540  0.29053458  1
  C  C2  8  0.16545219  0.39998155  0.75769800  1
  C  C3  8  0.18131663  0.24337930  0.77088291  1
  C  C4  8  0.24397232  0.28466500  0.73918354  1
  N  N5  8  0.13262810  0.31479662  0.78334036  1
  N  N6  8  0.13454183  0.49938852  0.24952588  1
  N  N7  8  0.16460363  0.13607613  0.80260191  1
  N  N8  8  0.23256432  0.38731158  0.73342688  1
  O  O9  8  0.07465374  0.49367373  0.24669217  1
  O  O10  8  0.13562010  0.11391955  0.96508554  1
  O  O11  8  0.17398361  0.42671552  0.26064774  1
  O  O12  8  0.18151311  0.07522634  0.66378690  1
