###############################################################################################
#
# CIF file generated by modified CIFWriter class 
# in pymatgen (v2025.03.10) https://pymatgen.org/
#
###############################################################################################
data_MACE-OFF23(L)_f8fe75b48d1f8e9
_symmetry_space_group_name_H-M   Pbcn
_cell_length_a   8.54566093
_cell_length_b   11.39631749
_cell_length_c   13.07319872
_cell_angle_alpha   90.00000000
_cell_angle_beta   90.00000000
_cell_angle_gamma   90.00000000
_symmetry_Int_Tables_number   60
_chemical_formula_moiety   'C3 H2 N4 O4'
_chemical_formula_sum   'H16 C24 N32 O32'
_cell_volume   1273.18660029
_cell_formula_units_Z   8
loop_
 _symmetry_equiv_pos_site_id
 _symmetry_equiv_pos_as_xyz
  1  'x, y, z'
  2  '-x, -y, -z'
  3  '-x+1/2, -y+1/2, z+1/2'
  4  'x+1/2, y+1/2, -z+1/2'
  5  'x+1/2, -y+1/2, -z'
  6  '-x+1/2, y+1/2, z'
  7  '-x, y, -z+1/2'
  8  'x, -y, z+1/2'
loop_
 _atom_site_type_symbol
 _atom_site_label
 _atom_site_symmetry_multiplicity
 _atom_site_fract_x
 _atom_site_fract_y
 _atom_site_fract_z
 _atom_site_occupancy
  H  H0  8  0.12567893  0.44151021  0.16518163  1
  H  H1  8  0.21082744  0.46332869  0.49729997  1
  C  C2  8  0.17457631  0.16230021  0.09084213  1
  C  C3  8  0.19429802  0.48006055  0.65860155  1
  C  C4  8  0.24473329  0.09547491  0.23020520  1
  N  N5  8  0.09275921  0.22698160  0.01103660  1
  N  N6  8  0.16350697  0.81488942  0.68788005  1
  N  N7  8  0.24244702  0.43520333  0.56867814  1
  N  N8  8  0.24554217  0.42200419  0.83860436  1
  O  O9  8  0.03754719  0.32133364  0.03347803  1
  O  O10  8  0.08417976  0.18039749  -0.07208867  1
  O  O11  8  0.15598759  0.50053933  0.36797187  1
  O  O12  8  0.17514353  0.13654251  0.39581112  1
