###############################################################################################
#
# CIF file generated by modified CIFWriter class 
# in pymatgen (v2025.03.10) https://pymatgen.org/
#
###############################################################################################
data_MACE-OFF23(L)_fa06c66d34b7cba
_symmetry_space_group_name_H-M   P4_32_12
_cell_length_a   10.35982523
_cell_length_b   10.35982523
_cell_length_c   12.30174659
_cell_angle_alpha   90.00000000
_cell_angle_beta   90.00000000
_cell_angle_gamma   90.00000000
_symmetry_Int_Tables_number   96
_chemical_formula_moiety   'C3 H2 N4 O4'
_chemical_formula_sum   'H16 C24 N32 O32'
_cell_volume   1320.29699496
_cell_formula_units_Z   8
loop_
 _symmetry_equiv_pos_site_id
 _symmetry_equiv_pos_as_xyz
  1  'x, y, z'
  2  '-y+1/2, x+1/2, z+3/4'
  3  '-x, -y, z+1/2'
  4  'y+1/2, -x+1/2, z+1/4'
  5  'x+1/2, -y+1/2, -z+1/4'
  6  '-y, -x, -z+1/2'
  7  '-x+1/2, y+1/2, -z+3/4'
  8  'y, x, -z'
loop_
 _atom_site_type_symbol
 _atom_site_label
 _atom_site_symmetry_multiplicity
 _atom_site_fract_x
 _atom_site_fract_y
 _atom_site_fract_z
 _atom_site_occupancy
  H  H0  8  0.00015833  0.62159276  0.01634369  1
  H  H1  8  0.21442814  0.73455252  0.05914481  1
  C  C2  8  -0.05331169  0.37901151  0.29349036  1
  C  C3  8  0.04636046  0.21179782  0.33324055  1
  C  C4  8  0.07433720  0.41066423  0.28468426  1
  N  N5  8  -0.07076965  0.25489046  0.32523905  1
  N  N6  8  0.03313423  0.33973181  0.02803201  1
  N  N7  8  0.08176194  0.08270582  0.36800034  1
  N  N8  8  0.13823531  0.30103967  0.31156379  1
  O  O9  8  -0.07150596  0.36549770  -0.01329055  1
  O  O10  8  0.00010429  0.00040965  0.63159401  1
  O  O11  8  0.06681907  0.23434715  0.05771478  1
  O  O12  8  0.06878598  0.19419417  0.60377609  1
