###############################################################################################
#
# CIF file generated by modified CIFWriter class 
# in pymatgen (v2025.03.10) https://pymatgen.org/
#
###############################################################################################
data_MACE-OFF23(L)_fabcc696c34e1ff
_symmetry_space_group_name_H-M   P4_32_12
_cell_length_a   6.08125053
_cell_length_b   6.08125053
_cell_length_c   35.76699570
_cell_angle_alpha   90.00000000
_cell_angle_beta   90.00000000
_cell_angle_gamma   90.00000000
_symmetry_Int_Tables_number   96
_chemical_formula_moiety   'C3 H2 N4 O4'
_chemical_formula_sum   'H16 C24 N32 O32'
_cell_volume   1322.72101416
_cell_formula_units_Z   8
loop_
 _symmetry_equiv_pos_site_id
 _symmetry_equiv_pos_as_xyz
  1  'x, y, z'
  2  '-y+1/2, x+1/2, z+3/4'
  3  '-x, -y, z+1/2'
  4  'y+1/2, -x+1/2, z+1/4'
  5  'x+1/2, -y+1/2, -z+1/4'
  6  '-y, -x, -z+1/2'
  7  '-x+1/2, y+1/2, -z+3/4'
  8  'y, x, -z'
loop_
 _atom_site_type_symbol
 _atom_site_label
 _atom_site_symmetry_multiplicity
 _atom_site_fract_x
 _atom_site_fract_y
 _atom_site_fract_z
 _atom_site_occupancy
  H  H0  8  0.02878604  0.69709390  0.84606456  1
  H  H1  8  0.07166451  0.15226546  0.13809463  1
  C  C2  8  0.02976354  -0.06067393  0.91664228  1
  C  C3  8  0.04289979  0.16518817  0.10852510  1
  C  C4  8  0.05376126  0.29085743  0.05179869  1
  N  N5  8  -0.15974591  -0.17808733  0.09273710  1
  N  N6  8  -0.05379283  0.10864556  0.04794731  1
  N  N7  8  0.05631745  0.61920144  0.77220989  1
  N  N8  8  0.11730513  0.33397174  0.08733407  1
  O  O9  8  -0.18620532  -0.21434224  0.12639534  1
  O  O10  8  -0.09214167  0.73891242  0.78242580  1
  O  O11  8  0.05556793  0.40942934  -0.00904421  1
  O  O12  8  0.19421318  0.70686793  0.31834367  1
