###############################################################################################
#
# CIF file generated by modified CIFWriter class 
# in pymatgen (v2025.03.10) https://pymatgen.org/
#
###############################################################################################
data_MACE-OFF23(L)_fc3ccf20333f98f
_symmetry_space_group_name_H-M   Cmc2_1
_cell_length_a   35.27857325
_cell_length_b   7.15626803
_cell_length_c   5.82353208
_cell_angle_alpha   90.00000000
_cell_angle_beta   90.00000000
_cell_angle_gamma   90.00000000
_symmetry_Int_Tables_number   36
_chemical_formula_moiety   'C3 H2 N4 O4'
_chemical_formula_sum   'H16 C24 N32 O32'
_cell_volume   1470.22594742
_cell_formula_units_Z   8
loop_
 _symmetry_equiv_pos_site_id
 _symmetry_equiv_pos_as_xyz
  1  'x, y, z'
  2  '-x, -y, z+1/2'
  3  '-x, y, z'
  4  'x, -y, z+1/2'
  5  'x+1/2, y+1/2, z'
  6  '-x+1/2, -y+1/2, z+1/2'
  7  '-x+1/2, y+1/2, z'
  8  'x+1/2, -y+1/2, z+1/2'
loop_
 _atom_site_type_symbol
 _atom_site_label
 _atom_site_symmetry_multiplicity
 _atom_site_fract_x
 _atom_site_fract_y
 _atom_site_fract_z
 _atom_site_occupancy
  H  H0  8  0.16139246  -0.12796779  0.92265183  1
  H  H1  8  0.22031181  0.07319054  0.92538614  1
  C  C2  8  0.13209014  0.15179663  0.92148143  1
  C  C3  8  0.16125551  0.02246699  0.92273216  1
  C  C4  8  0.18168952  0.30697061  0.92387990  1
  N  N5  8  0.09176019  0.10687645  0.91948078  1
  N  N6  8  0.14494786  0.32746100  0.92227571  1
  N  N7  8  0.19319422  0.12564970  0.92426750  1
  N  N8  8  0.20814193  0.45510682  0.92512866  1
  O  O9  8  0.06945898  0.23292592  0.91886488  1
  O  O10  8  0.08474859  -0.05983172  0.91859176  1
  O  O11  8  0.19722196  0.38376105  0.42444780  1
  O  O12  8  0.24200354  0.41088685  0.92698462  1
