###############################################################################################
#
# CIF file generated by modified CIFWriter class 
# in pymatgen (v2025.03.10) https://pymatgen.org/
#
###############################################################################################
data_MACE-OFF23(L)_ffbcaccdf86e410
_symmetry_space_group_name_H-M   P4/n
_cell_length_a   15.11248521
_cell_length_b   15.11248521
_cell_length_c   5.29735224
_cell_angle_alpha   90.00000000
_cell_angle_beta   90.00000000
_cell_angle_gamma   90.00000000
_symmetry_Int_Tables_number   85
_chemical_formula_moiety   'C3 H2 N4 O4'
_chemical_formula_sum   'H16 C24 N32 O32'
_cell_volume   1209.84749298
_cell_formula_units_Z   8
loop_
 _symmetry_equiv_pos_site_id
 _symmetry_equiv_pos_as_xyz
  1  'x, y, z'
  2  '-y+1/2, x+1/2, z'
  3  '-x, -y, z'
  4  'y+1/2, -x+1/2, z'
  5  '-x+1/2, -y+1/2, -z'
  6  'y, -x, -z'
  7  'x+1/2, y+1/2, -z'
  8  '-y, x, -z'
loop_
 _atom_site_type_symbol
 _atom_site_label
 _atom_site_symmetry_multiplicity
 _atom_site_fract_x
 _atom_site_fract_y
 _atom_site_fract_z
 _atom_site_occupancy
  H  H0  8  0.13508696  0.30597315  -0.09964564  1
  H  H1  8  0.13693251  0.13953915  -0.04539192  1
  C  C2  8  0.13923190  0.27240207  0.07856933  1
  C  C3  8  0.14732382  0.30251713  0.32232429  1
  C  C4  8  0.14738183  0.16606546  0.34944492  1
  N  N5  8  0.07660156  0.85268194  0.55867749  1
  N  N6  8  0.10630787  0.64968389  0.40018817  1
  N  N7  8  0.13960896  0.18359169  0.10042922  1
  N  N8  8  0.15115817  0.23586028  0.49209377  1
  O  O9  8  0.01859848  0.86734865  0.71093118  1
  O  O10  8  0.05021201  0.64090393  0.23809276  1
  O  O11  8  0.06442659  0.83803847  0.33455866  1
  O  O12  8  0.09027833  0.66150476  0.62306819  1
