###############################################################################################
#
# CIF file generated by modified CIFWriter class 
# in pymatgen (v2025.03.10) https://pymatgen.org/
#
###############################################################################################
data_MACE-OFF23(L)_101fdb416202173
_symmetry_space_group_name_H-M   P2_1/c
_cell_length_a   5.36338318
_cell_length_b   13.46401679
_cell_length_c   12.76101125
_cell_angle_alpha   90.00000000
_cell_angle_beta   60.39920285
_cell_angle_gamma   90.00000000
_symmetry_Int_Tables_number   14
_chemical_formula_moiety   'C9 H8 O4'
_chemical_formula_sum   'H32 C36 O16'
_cell_volume   801.23918874
_cell_formula_units_Z   4
loop_
 _symmetry_equiv_pos_site_id
 _symmetry_equiv_pos_as_xyz
  1  'x, y, z'
  2  '-x, -y, -z'
  3  '-x, y+1/2, -z+1/2'
  4  'x, -y+1/2, z+1/2'
loop_
 _atom_site_type_symbol
 _atom_site_label
 _atom_site_symmetry_multiplicity
 _atom_site_fract_x
 _atom_site_fract_y
 _atom_site_fract_z
 _atom_site_occupancy
  H  H0  4  -0.71842521  0.18454137  0.29663434  1
  H  H1  4  -0.66422056  0.44522605  0.80988648  1
  H  H2  4  -0.65584085  0.10062538  0.17963951  1
  H  H3  4  -0.09797622  0.38390643  0.22153828  1
  H  H4  4  0.06260580  0.05014980  -0.11081027  1
  H  H5  4  0.20291823  0.89002639  0.53867444  1
  H  H6  4  0.25843370  0.76826869  1.12164968  1
  H  H7  4  0.37190916  0.03407413  0.63626966  1
  C  C8  4  -0.60287069  0.38194929  0.74955849  1
  C  C9  4  -0.28809621  0.13497014  0.19197951  1
  C  C10  4  0.05745440  0.26424417  0.09603676  1
  C  C11  4  0.08755905  0.35201430  0.14526658  1
  C  C12  4  0.28719203  0.37283612  0.43541711  1
  C  C13  4  0.29182796  0.22031428  -0.00200832  1
  C  C14  4  0.35285622  0.39753500  0.09674043  1
  C  C15  4  0.41082021  0.64490583  1.00053005  1
  C  C16  4  0.44190125  0.76671022  0.54776920  1
  O  O17  4  -0.22216351  0.27153018  0.64939018  1
  O  O18  4  -0.10945899  0.07583013  0.18334945  1
  O  O19  4  0.04635845  0.11279145  -0.06878532  1
  O  O20  4  0.49143534  0.42761885  0.38765793  1
