###############################################################################################
#
# CIF file generated by modified CIFWriter class 
# in pymatgen (v2025.03.10) https://pymatgen.org/
#
###############################################################################################
data_MACE-OFF23(L)_11c94376a8a929e
_symmetry_space_group_name_H-M   P222_1
_cell_length_a   6.08013551
_cell_length_b   15.35090282
_cell_length_c   10.53318384
_cell_angle_alpha   90.00000000
_cell_angle_beta   90.00000000
_cell_angle_gamma   90.00000000
_symmetry_Int_Tables_number   17
_chemical_formula_moiety   'C9 H8 O4'
_chemical_formula_sum   'H32 C36 O16'
_cell_volume   983.12071053
_cell_formula_units_Z   4
loop_
 _symmetry_equiv_pos_site_id
 _symmetry_equiv_pos_as_xyz
  1  'x, y, z'
  2  '-x, -y, z+1/2'
  3  'x, -y, -z'
  4  '-x, y, -z+1/2'
loop_
 _atom_site_type_symbol
 _atom_site_label
 _atom_site_symmetry_multiplicity
 _atom_site_fract_x
 _atom_site_fract_y
 _atom_site_fract_z
 _atom_site_occupancy
  H  H0  4  -0.06162150  0.29249493  1.14431977  1
  H  H1  4  0.10620175  0.17248457  1.02401733  1
  H  H2  4  0.11879889  0.03971706  0.60756007  1
  H  H3  4  0.14542828  0.43170953  1.17244792  1
  H  H4  4  0.16464413  0.31730936  0.75481263  1
  H  H5  4  0.25124808  0.09656565  0.73487980  1
  H  H6  4  0.39105982  0.01393887  0.65163964  1
  H  H7  4  0.49961759  0.45096276  0.43765684  1
  C  C8  4  0.09713388  0.30196979  1.10056226  1
  C  C9  4  0.18870498  0.23446128  1.03118627  1
  C  C10  4  0.21152460  0.37960478  1.11511368  1
  C  C11  4  0.27233287  0.06662368  0.64220016  1
  C  C12  4  0.32108044  0.35303420  0.61126655  1
  C  C13  4  0.35567988  0.13332268  0.55075813  1
  C  C14  4  0.38786537  0.24601817  0.97055645  1
  C  C15  4  0.40962259  0.39100251  1.05286107  1
  C  C16  4  0.49635993  0.32621167  0.97450924  1
  O  O17  4  0.24082348  0.28887833  0.68581350  1
  O  O18  4  0.25782983  0.42698620  0.62183883  1
  O  O19  4  0.28282038  0.14853661  0.44724798  1
  O  O20  4  0.46671663  0.17587100  0.90086268  1
