###############################################################################################
#
# CIF file generated by modified CIFWriter class 
# in pymatgen (v2025.03.10) https://pymatgen.org/
#
###############################################################################################
data_MACE-OFF23(L)_11e6b73135a049a
_symmetry_space_group_name_H-M   Pnc2
_cell_length_a   13.71830556
_cell_length_b   14.17130267
_cell_length_c   5.40325094
_cell_angle_alpha   90.00000000
_cell_angle_beta   90.00000000
_cell_angle_gamma   90.00000000
_symmetry_Int_Tables_number   30
_chemical_formula_moiety   'C9 H8 O4'
_chemical_formula_sum   'H32 C36 O16'
_cell_volume   1050.42580805
_cell_formula_units_Z   4
loop_
 _symmetry_equiv_pos_site_id
 _symmetry_equiv_pos_as_xyz
  1  'x, y, z'
  2  '-x, -y, z'
  3  '-x, y+1/2, z+1/2'
  4  'x, -y+1/2, z+1/2'
loop_
 _atom_site_type_symbol
 _atom_site_label
 _atom_site_symmetry_multiplicity
 _atom_site_fract_x
 _atom_site_fract_y
 _atom_site_fract_z
 _atom_site_occupancy
  H  H0  4  0.00534102  0.66191627  0.58891331  1
  H  H1  4  0.03907423  0.56731385  0.96097867  1
  H  H2  4  0.14050362  0.70645762  0.30881608  1
  H  H3  4  0.16552958  0.40812308  1.50067504  1
  H  H4  4  0.17560250  0.29570427  1.35763656  1
  H  H5  4  0.27866644  0.37207920  1.38434872  1
  H  H6  4  0.30881747  0.65628030  0.40549093  1
  H  H7  4  0.44612126  0.43373303  0.79582213  1
  C  C8  4  0.07877824  0.63808817  0.62550385  1
  C  C9  4  0.09705281  0.58403923  0.83418593  1
  C  C10  4  0.15463548  0.66389886  0.46992022  1
  C  C11  4  0.17560685  0.41136040  1.10847125  1
  C  C12  4  0.19065806  0.55245836  0.87936506  1
  C  C13  4  0.20043856  0.36833166  1.35279625  1
  C  C14  4  0.24891684  0.63584454  0.52354384  1
  C  C15  4  0.26734482  0.57799833  0.72595284  1
  C  C16  4  0.36887185  0.54381636  0.76372226  1
  O  O17  4  0.12962665  0.37505456  0.94526908  1
  O  O18  4  0.21111275  0.50093614  1.09204083  1
  O  O19  4  0.37609181  0.45232877  0.80106483  1
  O  O20  4  0.43871706  0.59678963  0.74964912  1
