###############################################################################################
#
# CIF file generated by modified CIFWriter class 
# in pymatgen (v2025.03.10) https://pymatgen.org/
#
###############################################################################################
data_MACE-OFF23(L)_12f6a1af276d1cd
_symmetry_space_group_name_H-M   P2_12_12
_cell_length_a   8.18492951
_cell_length_b   11.67156011
_cell_length_c   8.89881877
_cell_angle_alpha   90.00000000
_cell_angle_beta   90.00000000
_cell_angle_gamma   90.00000000
_symmetry_Int_Tables_number   18
_chemical_formula_moiety   'C9 H8 O4'
_chemical_formula_sum   'H32 C36 O16'
_cell_volume   850.11213755
_cell_formula_units_Z   4
loop_
 _symmetry_equiv_pos_site_id
 _symmetry_equiv_pos_as_xyz
  1  'x, y, z'
  2  '-x, -y, z'
  3  'x+1/2, -y+1/2, -z'
  4  '-x+1/2, y+1/2, -z'
loop_
 _atom_site_type_symbol
 _atom_site_label
 _atom_site_symmetry_multiplicity
 _atom_site_fract_x
 _atom_site_fract_y
 _atom_site_fract_z
 _atom_site_occupancy
  H  H0  4  -0.17746873  1.30533916  0.93068795  1
  H  H1  4  -0.10253273  1.17563857  1.01024785  1
  H  H2  4  -0.01826033  1.31036385  1.06360173  1
  H  H3  4  -0.01205335  1.25596569  0.49925297  1
  H  H4  4  0.12832157  0.43156190  0.48628938  1
  H  H5  4  0.13145669  1.19921502  0.26764117  1
  H  H6  4  0.17875876  0.53017996  0.72677036  1
  H  H7  4  0.23177382  0.47645850  0.01041825  1
  C  C8  4  -0.06819801  1.26078178  0.97163477  1
  C  C9  4  0.04962512  1.25399243  0.84437267  1
  C  C10  4  0.07887844  1.18908368  0.50133243  1
  C  C11  4  0.11114159  1.13357103  0.63535622  1
  C  C12  4  0.15681040  1.15387496  0.37082408  1
  C  C13  4  0.20609038  0.50641221  0.49103667  1
  C  C14  4  0.22251805  1.04324478  0.64244900  1
  C  C15  4  0.22361711  0.48197495  0.21976566  1
  C  C16  4  0.23722439  0.56104349  0.62584403  1
  O  O17  4  0.01713403  1.15996096  0.76002399  1
  O  O18  4  0.13428827  0.39952546  0.22396594  1
  O  O19  4  0.15318462  1.32369718  0.81329622  1
  O  O20  4  0.22461942  1.02561498  0.91124159  1
