###############################################################################################
#
# CIF file generated by modified CIFWriter class 
# in pymatgen (v2025.03.10) https://pymatgen.org/
#
###############################################################################################
data_MACE-OFF23(L)_140bed154ee0e77
_symmetry_space_group_name_H-M   P2_1/c
_cell_length_a   10.91751352
_cell_length_b   5.31948984
_cell_length_c   13.57426638
_cell_angle_alpha   90.00000000
_cell_angle_beta   93.84621628
_cell_angle_gamma   90.00000000
_symmetry_Int_Tables_number   14
_chemical_formula_moiety   'C9 H8 O4'
_chemical_formula_sum   'H32 C36 O16'
_cell_volume   786.55811853
_cell_formula_units_Z   4
loop_
 _symmetry_equiv_pos_site_id
 _symmetry_equiv_pos_as_xyz
  1  'x, y, z'
  2  '-x, -y, -z'
  3  '-x, y+1/2, -z+1/2'
  4  'x, -y+1/2, z+1/2'
loop_
 _atom_site_type_symbol
 _atom_site_label
 _atom_site_symmetry_multiplicity
 _atom_site_fract_x
 _atom_site_fract_y
 _atom_site_fract_z
 _atom_site_occupancy
  H  H0  4  -0.03620464  1.48295438  0.08579820  1
  H  H1  4  0.02706399  1.49183151  0.20837376  1
  H  H2  4  0.09973052  -0.15618874  0.61346498  1
  H  H3  4  0.11479869  0.39986026  0.36104359  1
  H  H4  4  0.20577013  0.73116651  -0.21986430  1
  H  H5  4  0.37692626  0.50016000  -0.13268218  1
  H  H6  4  0.43602283  0.18746189  0.71762263  1
  H  H7  4  0.45776027  0.85403866  0.53267110  1
  C  C8  4  0.04947874  0.01153232  0.63179853  1
  C  C9  4  0.12075605  0.24191675  0.61144667  1
  C  C10  4  0.19072591  0.50222628  0.39676482  1
  C  C11  4  0.23630952  0.42420794  0.48928812  1
  C  C12  4  0.24152443  0.79163576  -0.14761746  1
  C  C13  4  0.33529031  0.95309886  0.03830565  1
  C  C14  4  0.33728022  0.83835498  0.40139730  1
  C  C15  4  0.38300203  0.74267336  -0.00669021  1
  C  C16  4  0.39916533  1.03159294  0.13379779  1
  O  O17  4  0.12511775  0.43194504  0.65940604  1
  O  O18  4  0.17867163  0.21585990  0.52665816  1
  O  O19  4  0.38254830  0.23064804  0.65866193  1
  O  O20  4  0.46545313  0.88792393  0.18210650  1
