###############################################################################################
#
# CIF file generated by modified CIFWriter class 
# in pymatgen (v2025.03.10) https://pymatgen.org/
#
###############################################################################################
data_MACE-OFF23(L)_1425f888b558fc2
_symmetry_space_group_name_H-M   P2_1/c
_cell_length_a   9.96177242
_cell_length_b   5.17961911
_cell_length_c   16.46836215
_cell_angle_alpha   90.00000000
_cell_angle_beta   107.54000779
_cell_angle_gamma   90.00000000
_symmetry_Int_Tables_number   14
_chemical_formula_moiety   'C9 H8 O4'
_chemical_formula_sum   'H32 C36 O16'
_cell_volume   810.23055788
_cell_formula_units_Z   4
loop_
 _symmetry_equiv_pos_site_id
 _symmetry_equiv_pos_as_xyz
  1  'x, y, z'
  2  '-x, -y, -z'
  3  '-x, y+1/2, -z+1/2'
  4  'x, -y+1/2, z+1/2'
loop_
 _atom_site_type_symbol
 _atom_site_label
 _atom_site_symmetry_multiplicity
 _atom_site_fract_x
 _atom_site_fract_y
 _atom_site_fract_z
 _atom_site_occupancy
  H  H0  4  -0.17742783  0.61980841  0.83282293  1
  H  H1  4  -0.14219778  1.28117835  0.41889139  1
  H  H2  4  0.02477653  0.66804104  0.30513561  1
  H  H3  4  0.09845153  0.04335740  0.97856158  1
  H  H4  4  0.38018875  1.03569454  0.78089868  1
  H  H5  4  0.43448974  0.68978547  0.21517792  1
  H  H6  4  0.48022118  0.84249683  0.04587445  1
  H  H7  4  0.48100938  0.32230123  0.67331730  1
  C  C8  4  -0.07413012  0.53707395  0.85869635  1
  C  C9  4  -0.05337376  1.18460110  0.40784866  1
  C  C10  4  0.03946047  0.84194217  0.34293633  1
  C  C11  4  0.08089149  0.21723420  0.94110622  1
  C  C12  4  0.17339687  0.94218335  0.37622143  1
  C  C13  4  0.19686714  1.16525094  0.42578568  1
  C  C14  4  0.31535379  0.84945225  0.28943559  1
  C  C15  4  0.33515622  0.20364371  0.96167527  1
  C  C16  4  0.41903009  0.65846660  0.27676577  1
  O  O17  4  0.26252612  1.02304345  0.24225835  1
  O  O18  4  0.28307255  0.80023061  0.36223910  1
  O  O19  4  0.35039280  1.46450982  0.51612644  1
  O  O20  4  0.43569956  1.22713184  0.43012008  1
