###############################################################################################
#
# CIF file generated by modified CIFWriter class 
# in pymatgen (v2025.03.10) https://pymatgen.org/
#
###############################################################################################
data_MACE-OFF23(L)_1444f391ddc555c
_symmetry_space_group_name_H-M   P2_1/c
_cell_length_a   8.36439878
_cell_length_b   4.98284015
_cell_length_c   23.23276670
_cell_angle_alpha   90.00000000
_cell_angle_beta   122.64398164
_cell_angle_gamma   90.00000000
_symmetry_Int_Tables_number   14
_chemical_formula_moiety   'C9 H8 O4'
_chemical_formula_sum   'H32 C36 O16'
_cell_volume   815.35099294
_cell_formula_units_Z   4
loop_
 _symmetry_equiv_pos_site_id
 _symmetry_equiv_pos_as_xyz
  1  'x, y, z'
  2  '-x, -y, -z'
  3  '-x, y+1/2, -z+1/2'
  4  'x, -y+1/2, z+1/2'
loop_
 _atom_site_type_symbol
 _atom_site_label
 _atom_site_symmetry_multiplicity
 _atom_site_fract_x
 _atom_site_fract_y
 _atom_site_fract_z
 _atom_site_occupancy
  H  H0  4  -0.46788015  0.52197437  0.31527464  1
  H  H1  4  -0.33910296  1.04028535  0.74248185  1
  H  H2  4  -0.33431456  0.62531630  0.90436295  1
  H  H3  4  -0.07692080  0.74935176  0.75898924  1
  H  H4  4  0.09713593  1.52393918  0.47745447  1
  H  H5  4  0.34788651  0.02135750  0.90161072  1
  H  H6  4  0.40366445  0.24004407  0.85508020  1
  H  H7  4  0.46390257  -0.24265543  0.55414965  1
  C  C8  4  -0.35503830  0.85023021  0.82188143  1
  C  C9  4  -0.28262483  0.61487182  0.28096670  1
  C  C10  4  -0.28102003  0.84733543  0.37153370  1
  C  C11  4  -0.13671496  0.72330071  0.78980984  1
  C  C12  4  -0.13469269  0.48582689  0.88101161  1
  C  C13  4  -0.06718942  0.27542442  0.93482514  1
  C  C14  4  -0.06326345  0.97392210  0.33954397  1
  C  C15  4  0.26038070  1.07703232  0.39664118  1
  C  C16  4  0.39717903  1.27810605  0.40047946  1
  O  O17  4  -0.14079111  0.25153053  0.96799420  1
  O  O18  4  0.06997699  1.37913181  0.44310462  1
  O  O19  4  0.07831047  0.36621749  0.84406543  1
  O  O20  4  0.29554019  0.88236318  0.43181933  1
