###############################################################################################
#
# CIF file generated by modified CIFWriter class 
# in pymatgen (v2025.03.10) https://pymatgen.org/
#
###############################################################################################
data_MACE-OFF23(L)_16c94f1009a3ac6
_symmetry_space_group_name_H-M   Cc
_cell_length_a   5.03002101
_cell_length_b   25.12969183
_cell_length_c   6.78584153
_cell_angle_alpha   90.00000000
_cell_angle_beta   97.10363606
_cell_angle_gamma   90.00000000
_symmetry_Int_Tables_number   9
_chemical_formula_moiety   'C9 H8 O4'
_chemical_formula_sum   'H32 C36 O16'
_cell_volume   851.16588971
_cell_formula_units_Z   4
loop_
 _symmetry_equiv_pos_site_id
 _symmetry_equiv_pos_as_xyz
  1  'x, y, z'
  2  'x, -y, z+1/2'
  3  'x+1/2, y+1/2, z'
  4  'x+1/2, -y+1/2, z+1/2'
loop_
 _atom_site_type_symbol
 _atom_site_label
 _atom_site_symmetry_multiplicity
 _atom_site_fract_x
 _atom_site_fract_y
 _atom_site_fract_z
 _atom_site_occupancy
  H  H0  4  -0.12340283  0.63614623  0.47997507  1
  H  H1  4  -0.06940920  0.67025744  0.82695884  1
  H  H2  4  0.20401896  0.42875897  -0.12230808  1
  H  H3  4  0.28560266  0.27208424  0.86159701  1
  H  H4  4  0.46551160  0.67243639  1.46140889  1
  H  H5  4  0.56517011  0.46141653  0.12494964  1
  H  H6  4  0.64012467  0.26999643  0.89044840  1
  H  H7  4  0.75845745  0.46113032  0.77164683  1
  C  C8  4  0.03692969  0.62165888  0.58679338  1
  C  C9  4  0.06611988  0.35906519  0.27955430  1
  C  C10  4  0.21722221  0.58482292  0.52918892  1
  C  C11  4  0.27128197  0.37780125  0.41638948  1
  C  C12  4  0.42029323  0.43363624  0.16739458  1
  C  C13  4  0.44770116  0.41666389  0.36438572  1
  C  C14  4  0.46655861  0.29541458  0.85467255  1
  C  C15  4  0.46832452  0.68339164  1.14926849  1
  C  C16  4  0.65254825  0.55467033  1.00197618  1
  O  O17  4  0.28741925  0.35672757  0.60756089  1
  O  O18  4  0.60454463  0.69960097  1.02908495  1
  O  O19  4  0.65331793  0.56610429  1.19385985  1
  O  O20  4  0.79868955  0.47915875  0.44684902  1
