###############################################################################################
#
# CIF file generated by modified CIFWriter class 
# in pymatgen (v2025.03.10) https://pymatgen.org/
#
###############################################################################################
data_MACE-OFF23(L)_17422eac1830d1f
_symmetry_space_group_name_H-M   P2/c
_cell_length_a   12.07811634
_cell_length_b   5.68417583
_cell_length_c   12.16984583
_cell_angle_alpha   90.00000000
_cell_angle_beta   97.58198607
_cell_angle_gamma   90.00000000
_symmetry_Int_Tables_number   13
_chemical_formula_moiety   'C9 H8 O4'
_chemical_formula_sum   'H32 C36 O16'
_cell_volume   828.20545691
_cell_formula_units_Z   4
loop_
 _symmetry_equiv_pos_site_id
 _symmetry_equiv_pos_as_xyz
  1  'x, y, z'
  2  '-x, -y, -z'
  3  '-x, y, -z+1/2'
  4  'x, -y, z+1/2'
loop_
 _atom_site_type_symbol
 _atom_site_label
 _atom_site_symmetry_multiplicity
 _atom_site_fract_x
 _atom_site_fract_y
 _atom_site_fract_z
 _atom_site_occupancy
  H  H0  4  0.04850540  -0.08802999  0.66807457  1
  H  H1  4  0.09325328  0.57877697  0.49990311  1
  H  H2  4  0.13969708  1.32153458  0.32688791  1
  H  H3  4  0.31390992  -0.17419648  0.93468287  1
  H  H4  4  0.33995735  0.18629257  0.06638142  1
  H  H5  4  0.39905171  0.80279324  0.37815109  1
  H  H6  4  0.42354841  0.83886350  0.69395562  1
  H  H7  4  0.48364296  0.25730149  0.07449820  1
  C  C8  4  0.10168820  0.67999912  0.09731678  1
  C  C9  4  0.12536032  1.02979762  0.21536517  1
  C  C10  4  0.17053895  0.81724326  0.18489807  1
  C  C11  4  0.17599972  1.15772455  0.30427467  1
  C  C12  4  0.27085584  0.74182636  0.24420012  1
  C  C13  4  0.27402908  1.07574383  0.36446359  1
  C  C14  4  0.32201489  0.86875587  0.33376463  1
  C  C15  4  0.38302139  0.51241198  0.14119200  1
  C  C16  4  0.41110718  0.26330350  0.11818748  1
  O  O17  4  0.00184772  0.72304237  0.07358116  1
  O  O18  4  0.15197983  0.48826485  0.54889911  1
  O  O19  4  0.31726687  0.47430577  0.72295214  1
  O  O20  4  0.41248297  0.68437511  0.09512573  1
