###############################################################################################
#
# CIF file generated by modified CIFWriter class 
# in pymatgen (v2025.03.10) https://pymatgen.org/
#
###############################################################################################
data_MACE-OFF23(L)_17c3c92c765cf
_symmetry_space_group_name_H-M   Pca2_1
_cell_length_a   9.11518039
_cell_length_b   10.19284762
_cell_length_c   8.72901994
_cell_angle_alpha   90.00000000
_cell_angle_beta   90.00000000
_cell_angle_gamma   90.00000000
_symmetry_Int_Tables_number   29
_chemical_formula_moiety   'C9 H8 O4'
_chemical_formula_sum   'H32 C36 O16'
_cell_volume   811.01014166
_cell_formula_units_Z   4
loop_
 _symmetry_equiv_pos_site_id
 _symmetry_equiv_pos_as_xyz
  1  'x, y, z'
  2  '-x, -y, z+1/2'
  3  '-x+1/2, y, z+1/2'
  4  'x+1/2, -y, z'
loop_
 _atom_site_type_symbol
 _atom_site_label
 _atom_site_symmetry_multiplicity
 _atom_site_fract_x
 _atom_site_fract_y
 _atom_site_fract_z
 _atom_site_occupancy
  H  H0  4  -0.15118122  0.50983660  0.86374897  1
  H  H1  4  -0.12242930  0.85261273  0.24510024  1
  H  H2  4  0.03146090  0.82580265  0.01982475  1
  H  H3  4  0.04119424  0.99407713  0.07014848  1
  H  H4  4  0.10211891  0.93666348  -0.11274747  1
  H  H5  4  0.10980833  0.54456159  0.92564649  1
  H  H6  4  0.23667625  0.68166978  0.25416585  1
  H  H7  4  0.24040193  0.38052136  0.63792689  1
  C  C8  4  -0.14411206  0.62960667  0.66288189  1
  C  C9  4  -0.13893016  0.77678382  0.44006811  1
  C  C10  4  -0.08378693  0.56898223  0.78940832  1
  C  C11  4  -0.05902768  0.70737336  0.56543000  1
  C  C12  4  0.06317938  0.58778935  0.82367924  1
  C  C13  4  0.08908323  0.72199686  0.59980535  1
  C  C14  4  0.09505074  0.91544107  0.00875798  1
  C  C15  4  0.14936311  0.66357804  0.72850039  1
  C  C16  4  0.24416122  0.89571702  0.07243678  1
  O  O17  4  -0.06191800  0.79886291  0.31251874  1
  O  O18  4  0.18490957  0.79117331  0.50666748  1
  O  O19  4  0.19862253  0.95948955  0.67144645  1
  O  O20  4  0.23434936  0.19050540  0.45370982  1
