###############################################################################################
#
# CIF file generated by modified CIFWriter class 
# in pymatgen (v2025.03.10) https://pymatgen.org/
#
###############################################################################################
data_MACE-OFF23(L)_192603d95f6dbd4
_symmetry_space_group_name_H-M   Pna2_1
_cell_length_a   10.61421908
_cell_length_b   14.12335207
_cell_length_c   5.79122692
_cell_angle_alpha   90.00000000
_cell_angle_beta   90.00000000
_cell_angle_gamma   90.00000000
_symmetry_Int_Tables_number   33
_chemical_formula_moiety   'C9 H8 O4'
_chemical_formula_sum   'H32 C36 O16'
_cell_volume   868.15329023
_cell_formula_units_Z   4
loop_
 _symmetry_equiv_pos_site_id
 _symmetry_equiv_pos_as_xyz
  1  'x, y, z'
  2  '-x, -y, z+1/2'
  3  '-x+1/2, y+1/2, z+1/2'
  4  'x+1/2, -y+1/2, z'
loop_
 _atom_site_type_symbol
 _atom_site_label
 _atom_site_symmetry_multiplicity
 _atom_site_fract_x
 _atom_site_fract_y
 _atom_site_fract_z
 _atom_site_occupancy
  H  H0  4  0.04413829  0.68960381  -0.01859576  1
  H  H1  4  0.05486334  0.57688277  0.12151824  1
  H  H2  4  0.06016019  0.13791353  0.00922473  1
  H  H3  4  0.08594235  0.94488639  0.30951296  1
  H  H4  4  0.11301198  1.06054191  0.62673802  1
  H  H5  4  0.16130224  0.35817665  0.48833506  1
  H  H6  4  0.19088396  0.63459897  0.01025949  1
  H  H7  4  0.23839626  1.01514303  0.97378392  1
  C  C8  4  0.10026185  0.64469419  0.09370695  1
  C  C9  4  0.11945381  0.69346888  0.31963822  1
  C  C10  4  0.13887488  0.92654682  0.46257845  1
  C  C11  4  0.15064773  0.22672021  0.17767702  1
  C  C12  4  0.15379955  0.99070381  0.64192823  1
  C  C13  4  0.19542579  0.83821662  0.47336376  1
  C  C14  4  0.21786741  0.37806760  0.34165477  1
  C  C15  4  0.22432595  0.96575956  0.83409138  1
  C  C16  4  0.22859104  0.31382711  0.16033305  1
  O  O17  4  0.09096016  0.66459930  0.50719050  1
  O  O18  4  0.10962922  0.19592577  0.35669886  1
  O  O19  4  0.12197184  0.18641620  -0.02585988  1
  O  O20  4  0.17491994  0.77967033  0.28522520  1
