###############################################################################################
#
# CIF file generated by modified CIFWriter class 
# in pymatgen (v2025.03.10) https://pymatgen.org/
#
###############################################################################################
data_MACE-OFF23(L)_1a6005ef3b022ef
_symmetry_space_group_name_H-M   P4_1
_cell_length_a   10.96271169
_cell_length_b   10.96271169
_cell_length_c   8.08057845
_cell_angle_alpha   90.00000000
_cell_angle_beta   90.00000000
_cell_angle_gamma   90.00000000
_symmetry_Int_Tables_number   76
_chemical_formula_moiety   'C9 H8 O4'
_chemical_formula_sum   'H32 C36 O16'
_cell_volume   971.13238441
_cell_formula_units_Z   4
loop_
 _symmetry_equiv_pos_site_id
 _symmetry_equiv_pos_as_xyz
  1  'x, y, z'
  2  '-y, x, z+1/4'
  3  '-x, -y, z+1/2'
  4  'y, -x, z+3/4'
loop_
 _atom_site_type_symbol
 _atom_site_label
 _atom_site_symmetry_multiplicity
 _atom_site_fract_x
 _atom_site_fract_y
 _atom_site_fract_z
 _atom_site_occupancy
  H  H0  4  -0.31847502  0.36941825  0.65953874  1
  H  H1  4  -0.29085137  0.47518128  0.82106163  1
  H  H2  4  -0.20981561  0.48974250  0.63390369  1
  H  H3  4  -0.05753612  0.30679190  1.15299587  1
  H  H4  4  0.07766533  0.43662468  0.47821753  1
  H  H5  4  0.12635784  0.21807802  1.28724317  1
  H  H6  4  0.21899126  0.67670810  0.88696843  1
  H  H7  4  0.30760356  0.66407255  0.60749616  1
  C  C8  4  -0.24959122  0.42445685  0.71974468  1
  C  C9  4  -0.15249362  0.34346346  0.78790498  1
  C  C10  4  0.02903139  0.30460444  1.08949128  1
  C  C11  4  0.03698637  0.35164786  0.93120894  1
  C  C12  4  0.13187054  0.25534532  1.16365440  1
  C  C13  4  0.14636363  0.35173788  0.84469128  1
  C  C14  4  0.16007706  0.40357331  0.67533035  1
  C  C15  4  0.24240224  0.25604565  1.07950731  1
  C  C16  4  0.24974454  0.30491304  0.92192252  1
  O  O17  4  -0.14784523  0.23467715  0.78271636  1
  O  O18  4  -0.06390820  0.41184097  0.86501148  1
  O  O19  4  0.06291603  0.38961958  0.57844987  1
  O  O20  4  0.25242970  0.45370487  0.62938318  1
