###############################################################################################
#
# CIF file generated by modified CIFWriter class 
# in pymatgen (v2025.03.10) https://pymatgen.org/
#
###############################################################################################
data_MACE-OFF23(L)_1bbc3fa730f360f
_symmetry_space_group_name_H-M   P2_1/c
_cell_length_a   8.35802612
_cell_length_b   4.47780993
_cell_length_c   22.22163077
_cell_angle_alpha   90.00000000
_cell_angle_beta   94.67359899
_cell_angle_gamma   90.00000000
_symmetry_Int_Tables_number   14
_chemical_formula_moiety   'C9 H8 O4'
_chemical_formula_sum   'H32 C36 O16'
_cell_volume   828.89379189
_cell_formula_units_Z   4
loop_
 _symmetry_equiv_pos_site_id
 _symmetry_equiv_pos_as_xyz
  1  'x, y, z'
  2  '-x, -y, -z'
  3  '-x, y+1/2, -z+1/2'
  4  'x, -y+1/2, z+1/2'
loop_
 _atom_site_type_symbol
 _atom_site_label
 _atom_site_symmetry_multiplicity
 _atom_site_fract_x
 _atom_site_fract_y
 _atom_site_fract_z
 _atom_site_occupancy
  H  H0  4  -0.03061538  0.30144605  0.62937644  1
  H  H1  4  0.00472279  -0.02522136  0.23070779  1
  H  H2  4  0.01580674  0.26656318  0.44574060  1
  H  H3  4  0.14068657  0.54368437  -0.04105048  1
  H  H4  4  0.20544181  0.26824152  0.41635105  1
  H  H5  4  0.27777350  0.66041899  0.77479307  1
  H  H6  4  0.39599802  0.72214623  0.96367614  1
  H  H7  4  0.48845841  1.05747013  0.78344089  1
  C  C8  4  0.08794093  0.14334866  0.14921626  1
  C  C9  4  0.10860088  0.48300198  0.70609948  1
  C  C10  4  0.14038498  0.30366063  -0.04603531  1
  C  C11  4  0.20838008  0.15667177  0.01036845  1
  C  C12  4  0.21952666  0.19387131  0.11656543  1
  C  C13  4  0.26120731  0.55816229  0.73072795  1
  C  C14  4  0.37471565  0.13017464  0.14096206  1
  C  C15  4  0.39198935  0.50017708  0.69822164  1
  C  C16  4  0.47407267  0.82220511  0.88925901  1
  O  O17  4  0.18329494  0.31787989  0.05981311  1
  O  O18  4  0.27081753  -0.08702844  0.01388407  1
  O  O19  4  0.34553208  0.91224377  0.86729681  1
  O  O20  4  0.48946387  0.82527304  0.44127063  1
