###############################################################################################
#
# CIF file generated by modified CIFWriter class 
# in pymatgen (v2025.03.10) https://pymatgen.org/
#
###############################################################################################
data_MACE-OFF23(L)_1e3f28849db40a0
_symmetry_space_group_name_H-M   Pca2_1
_cell_length_a   8.22605223
_cell_length_b   9.00693345
_cell_length_c   12.74833934
_cell_angle_alpha   90.00000000
_cell_angle_beta   90.00000000
_cell_angle_gamma   90.00000000
_symmetry_Int_Tables_number   29
_chemical_formula_moiety   'C9 H8 O4'
_chemical_formula_sum   'H32 C36 O16'
_cell_volume   944.54364803
_cell_formula_units_Z   4
loop_
 _symmetry_equiv_pos_site_id
 _symmetry_equiv_pos_as_xyz
  1  'x, y, z'
  2  '-x, -y, z+1/2'
  3  '-x+1/2, y, z+1/2'
  4  'x+1/2, -y, z'
loop_
 _atom_site_type_symbol
 _atom_site_label
 _atom_site_symmetry_multiplicity
 _atom_site_fract_x
 _atom_site_fract_y
 _atom_site_fract_z
 _atom_site_occupancy
  H  H0  4  -0.14472385  0.62795029  0.90187284  1
  H  H1  4  -0.07685989  0.84551722  0.79037957  1
  H  H2  4  -0.02888691  0.38078512  0.85905858  1
  H  H3  4  0.07432855  1.13032912  0.58455848  1
  H  H4  4  0.11077246  0.64519521  -0.02584912  1
  H  H5  4  0.15306087  0.35481320  0.70601045  1
  H  H6  4  0.19165564  1.03237996  0.49214562  1
  H  H7  4  0.21131669  1.15209761  0.08418007  1
  C  C8  4  -0.06212139  0.61534325  0.83661518  1
  C  C9  4  -0.02504084  0.73752062  0.77513433  1
  C  C10  4  0.00108286  0.47650868  0.81190109  1
  C  C11  4  0.07514008  0.72078552  0.68886313  1
  C  C12  4  0.10238679  0.46149509  0.72612025  1
  C  C13  4  0.14289840  0.58359625  0.66412374  1
  C  C14  4  0.19016930  1.07440919  0.57213136  1
  C  C15  4  0.20220182  0.94774406  0.64738879  1
  C  C16  4  0.24472346  0.55620915  0.07478419  1
  O  O17  4  0.09174346  0.84108505  0.62216780  1
  O  O18  4  0.17811593  0.67748832  0.03247009  1
  O  O19  4  0.20796891  0.93670639  0.22117983  1
  O  O20  4  0.21335352  0.43295684  0.04304762  1
