###############################################################################################
#
# CIF file generated by modified CIFWriter class 
# in pymatgen (v2025.03.10) https://pymatgen.org/
#
###############################################################################################
data_MACE-OFF23(L)_1fe15b0e87b2236
_symmetry_space_group_name_H-M   P2_12_12_1
_cell_length_a   13.80916193
_cell_length_b   9.00279735
_cell_length_c   6.47805553
_cell_angle_alpha   90.00000000
_cell_angle_beta   90.00000000
_cell_angle_gamma   90.00000000
_symmetry_Int_Tables_number   19
_chemical_formula_moiety   'C9 H8 O4'
_chemical_formula_sum   'H32 C36 O16'
_cell_volume   805.35890128
_cell_formula_units_Z   4
loop_
 _symmetry_equiv_pos_site_id
 _symmetry_equiv_pos_as_xyz
  1  'x, y, z'
  2  'x+1/2, -y+1/2, -z'
  3  '-x+1/2, -y, z+1/2'
  4  '-x, y+1/2, -z+1/2'
loop_
 _atom_site_type_symbol
 _atom_site_label
 _atom_site_symmetry_multiplicity
 _atom_site_fract_x
 _atom_site_fract_y
 _atom_site_fract_z
 _atom_site_occupancy
  H  H0  4  -0.12144889  0.59948247  0.64193621  1
  H  H1  4  -0.06399481  0.81114234  0.03978522  1
  H  H2  4  -0.03231435  0.45478112  0.90312750  1
  H  H3  4  0.14384803  0.41168448  0.85787822  1
  H  H4  4  0.16762195  0.80295685  -0.10004931  1
  H  H5  4  0.22119985  0.24607696  0.50735917  1
  H  H6  4  0.22771846  0.51441246  0.55149197  1
  H  H7  4  0.24175252  0.94250886  0.01541728  1
  C  C8  4  -0.06148317  0.72097670  0.30269428  1
  C  C9  4  -0.04502918  0.57844710  0.62346553  1
  C  C10  4  0.00049564  0.63452975  0.44779898  1
  C  C11  4  0.00511952  0.49718081  0.76940151  1
  C  C12  4  0.09946696  0.60873294  0.42456111  1
  C  C13  4  0.10373445  0.47363186  0.74371214  1
  C  C14  4  0.15083364  0.52963705  0.57143848  1
  C  C15  4  0.16764670  0.80084385  0.22502937  1
  C  C16  4  0.21764288  0.82832720  0.02509306  1
  O  O17  4  -0.14090081  0.76624426  0.34925537  1
  O  O18  4  -0.02228320  0.74455188  0.11745168  1
  O  O19  4  0.14411797  0.89244836  0.35054932  1
  O  O20  4  0.15104017  0.65343431  0.25188817  1
