###############################################################################################
#
# CIF file generated by modified CIFWriter class 
# in pymatgen (v2025.03.10) https://pymatgen.org/
#
###############################################################################################
data_MACE-OFF23(L)_20ce6e221825ca0
_symmetry_space_group_name_H-M   P2_1/c
_cell_length_a   11.54957219
_cell_length_b   6.21251912
_cell_length_c   11.15706170
_cell_angle_alpha   90.00000000
_cell_angle_beta   93.35263749
_cell_angle_gamma   90.00000000
_symmetry_Int_Tables_number   14
_chemical_formula_moiety   'C9 H8 O4'
_chemical_formula_sum   'H32 C36 O16'
_cell_volume   799.17068305
_cell_formula_units_Z   4
loop_
 _symmetry_equiv_pos_site_id
 _symmetry_equiv_pos_as_xyz
  1  'x, y, z'
  2  '-x, -y, -z'
  3  '-x, y+1/2, -z+1/2'
  4  'x, -y+1/2, z+1/2'
loop_
 _atom_site_type_symbol
 _atom_site_label
 _atom_site_symmetry_multiplicity
 _atom_site_fract_x
 _atom_site_fract_y
 _atom_site_fract_z
 _atom_site_occupancy
  H  H0  4  0.03723068  0.47896831  1.15033406  1
  H  H1  4  0.04702719  0.26707585  0.73109674  1
  H  H2  4  0.12075136  -0.27829678  1.00178324  1
  H  H3  4  0.17059378  0.39646554  1.22652132  1
  H  H4  4  0.19266156  -0.48545434  0.83187419  1
  H  H5  4  0.36070526  0.85015113  0.22589110  1
  H  H6  4  0.42325222  0.48456123  1.06928997  1
  H  H7  4  0.45605726  0.51274497  0.29252797  1
  C  C8  4  0.09282149  0.34372369  1.17512555  1
  C  C9  4  0.12486605  0.23168250  1.06374737  1
  C  C10  4  0.19399135  0.72220168  0.45472623  1
  C  C11  4  0.23454233  -0.33672099  0.85924633  1
  C  C12  4  0.24676466  -0.03110868  0.98980908  1
  C  C13  4  0.32887414  0.76170415  0.30022175  1
  C  C14  4  0.34223743  0.45271548  0.43227759  1
  C  C15  4  0.38224480  -0.07204348  0.83718011  1
  C  C16  4  0.40671242  0.24857181  0.96449285  1
  O  O17  4  0.08610183  0.26815353  0.96327950  1
  O  O18  4  0.20438074  0.42498043  0.58784751  1
  O  O19  4  0.37255352  0.35582563  1.05741059  1
  O  O20  4  0.48783287  0.19302029  0.40663339  1
