###############################################################################################
#
# CIF file generated by modified CIFWriter class 
# in pymatgen (v2025.03.10) https://pymatgen.org/
#
###############################################################################################
data_MACE-OFF23(L)_210d54330873811
_symmetry_space_group_name_H-M   P2_1/c
_cell_length_a   4.65052387
_cell_length_b   10.32791314
_cell_length_c   16.85219981
_cell_angle_alpha   90.00000000
_cell_angle_beta   96.01690522
_cell_angle_gamma   90.00000000
_symmetry_Int_Tables_number   14
_chemical_formula_moiety   'C9 H8 O4'
_chemical_formula_sum   'H32 C36 O16'
_cell_volume   804.95558171
_cell_formula_units_Z   4
loop_
 _symmetry_equiv_pos_site_id
 _symmetry_equiv_pos_as_xyz
  1  'x, y, z'
  2  '-x, -y, -z'
  3  '-x, y+1/2, -z+1/2'
  4  'x, -y+1/2, z+1/2'
loop_
 _atom_site_type_symbol
 _atom_site_label
 _atom_site_symmetry_multiplicity
 _atom_site_fract_x
 _atom_site_fract_y
 _atom_site_fract_z
 _atom_site_occupancy
  H  H0  4  -0.08161051  0.46519808  0.76484854  1
  H  H1  4  -0.00096766  0.36116657  0.52634890  1
  H  H2  4  0.01371231  0.96536746  0.13164448  1
  H  H3  4  0.17019937  0.92127396  0.51541079  1
  H  H4  4  0.20577692  0.26280497  0.46940349  1
  H  H5  4  0.28263317  0.06825730  -0.02271641  1
  H  H6  4  0.31009012  0.21733346  0.26406525  1
  H  H7  4  0.39533029  0.80113819  0.11584841  1
  C  C8  4  0.08852928  0.96590315  0.25809454  1
  C  C9  4  0.14158895  0.92559345  0.18279358  1
  C  C10  4  0.15780328  0.95823450  0.40452393  1
  C  C11  4  0.21479515  0.15299656  0.00835026  1
  C  C12  4  0.24697739  0.58323351  0.82624883  1
  C  C13  4  0.35402161  0.66588666  0.67436674  1
  C  C14  4  0.42062954  0.32236538  0.58057492  1
  C  C15  4  0.46531006  0.67239215  0.81613129  1
  C  C16  4  0.48231385  0.28581494  0.25881375  1
  O  O17  4  -0.01486758  0.45275825  0.90851340  1
  O  O18  4  0.26512376  0.89265550  0.46716996  1
  O  O19  4  0.34756772  0.28566557  0.11921351  1
  O  O20  4  0.37402103  0.61211916  0.39586098  1
