###############################################################################################
#
# CIF file generated by modified CIFWriter class 
# in pymatgen (v2025.03.10) https://pymatgen.org/
#
###############################################################################################
data_MACE-OFF23(L)_2242633b9b1a312
_symmetry_space_group_name_H-M   P4_1
_cell_length_a   6.48802829
_cell_length_b   6.48802829
_cell_length_c   20.81024195
_cell_angle_alpha   90.00000000
_cell_angle_beta   90.00000000
_cell_angle_gamma   90.00000000
_symmetry_Int_Tables_number   76
_chemical_formula_moiety   'C9 H8 O4'
_chemical_formula_sum   'H32 C36 O16'
_cell_volume   875.99695994
_cell_formula_units_Z   4
loop_
 _symmetry_equiv_pos_site_id
 _symmetry_equiv_pos_as_xyz
  1  'x, y, z'
  2  '-y, x, z+1/4'
  3  '-x, -y, z+1/2'
  4  'y, -x, z+3/4'
loop_
 _atom_site_type_symbol
 _atom_site_label
 _atom_site_symmetry_multiplicity
 _atom_site_fract_x
 _atom_site_fract_y
 _atom_site_fract_z
 _atom_site_occupancy
  H  H0  4  -0.29382653  0.40098925  0.92635255  1
  H  H1  4  -0.18034377  0.59268038  1.02215410  1
  H  H2  4  -0.11510308  0.72201560  0.11934379  1
  H  H3  4  -0.06489152  0.38602539  0.83046527  1
  H  H4  4  -0.01956102  0.73361003  0.19903033  1
  H  H5  4  0.14603296  0.78860061  0.13445178  1
  H  H6  4  0.15533768  0.77652798  1.02094220  1
  H  H7  4  0.43994282  0.45524378  0.27724025  1
  C  C8  4  -0.14577772  0.47599751  0.92665692  1
  C  C9  4  -0.08289002  0.58546923  0.98021031  1
  C  C10  4  -0.01898013  0.46778970  0.87329168  1
  C  C11  4  0.01708843  0.69365750  0.14968173  1
  C  C12  4  0.07390837  0.47134745  0.14521640  1
  C  C13  4  0.10554867  0.68553937  0.98036083  1
  C  C14  4  0.17364072  0.56215860  0.87303391  1
  C  C15  4  0.23396612  0.67063711  0.92761657  1
  C  C16  4  0.29436618  0.54391928  0.81244963  1
  O  O17  4  -0.00712869  0.34235467  0.11280166  1
  O  O18  4  0.21508786  0.52400836  0.76050696  1
  O  O19  4  0.24044674  0.42813132  0.18355208  1
  O  O20  4  0.45383418  0.50017321  0.06997117  1
