###############################################################################################
#
# CIF file generated by modified CIFWriter class 
# in pymatgen (v2025.03.10) https://pymatgen.org/
#
###############################################################################################
data_MACE-OFF23(L)_2274bc089136a4f
_symmetry_space_group_name_H-M   Cc
_cell_length_a   4.52521578
_cell_length_b   18.22618099
_cell_length_c   10.29974708
_cell_angle_alpha   90.00000000
_cell_angle_beta   102.33038959
_cell_angle_gamma   90.00000000
_symmetry_Int_Tables_number   9
_chemical_formula_moiety   'C9 H8 O4'
_chemical_formula_sum   'H32 C36 O16'
_cell_volume   829.90057512
_cell_formula_units_Z   4
loop_
 _symmetry_equiv_pos_site_id
 _symmetry_equiv_pos_as_xyz
  1  'x, y, z'
  2  'x, -y, z+1/2'
  3  'x+1/2, y+1/2, z'
  4  'x+1/2, -y+1/2, z+1/2'
loop_
 _atom_site_type_symbol
 _atom_site_label
 _atom_site_symmetry_multiplicity
 _atom_site_fract_x
 _atom_site_fract_y
 _atom_site_fract_z
 _atom_site_occupancy
  H  H0  4  -0.21521504  0.45468327  0.64418418  1
  H  H1  4  -0.07049756  0.21406376  0.77431609  1
  H  H2  4  0.03293322  0.35945423  0.53478705  1
  H  H3  4  0.06262515  0.22204880  0.94811602  1
  H  H4  4  0.23645791  0.19437034  0.65615807  1
  H  H5  4  0.31294257  0.24170629  0.84436950  1
  H  H6  4  0.33600612  0.60337780  0.86970499  1
  H  H7  4  0.38838720  0.47317870  0.81953138  1
  C  C8  4  -0.20031015  0.59602530  0.62280440  1
  C  C9  4  -0.08149682  0.46968498  0.57340191  1
  C  C10  4  -0.04943448  0.45619641  1.04684584  1
  C  C11  4  -0.02100153  0.32358860  0.84718932  1
  C  C12  4  0.05724805  0.41656970  0.51137685  1
  C  C13  4  0.07717608  0.24505718  0.85213933  1
  C  C14  4  0.12032847  0.43719360  0.95386123  1
  C  C15  4  0.22533467  0.43690767  0.41953734  1
  C  C16  4  0.25566142  0.48975811  0.88989497  1
  O  O17  4  -0.24926111  0.34807024  0.77996743  1
  O  O18  4  -0.13829732  0.33222727  1.10724628  1
  O  O19  4  0.13593547  0.92251677  1.19462926  1
  O  O20  4  0.18604253  0.36419524  0.93114188  1
