###############################################################################################
#
# CIF file generated by modified CIFWriter class 
# in pymatgen (v2025.03.10) https://pymatgen.org/
#
###############################################################################################
data_MACE-OFF23(L)_2536210946dc860
_symmetry_space_group_name_H-M   C2
_cell_length_a   17.98725635
_cell_length_b   6.04763746
_cell_length_c   8.18452111
_cell_angle_alpha   90.00000000
_cell_angle_beta   95.06576788
_cell_angle_gamma   90.00000000
_symmetry_Int_Tables_number   5
_chemical_formula_moiety   'C9 H8 O4'
_chemical_formula_sum   'H32 C36 O16'
_cell_volume   886.83795002
_cell_formula_units_Z   4
loop_
 _symmetry_equiv_pos_site_id
 _symmetry_equiv_pos_as_xyz
  1  'x, y, z'
  2  '-x, y, -z'
  3  'x+1/2, y+1/2, z'
  4  '-x+1/2, y+1/2, -z'
loop_
 _atom_site_type_symbol
 _atom_site_label
 _atom_site_symmetry_multiplicity
 _atom_site_fract_x
 _atom_site_fract_y
 _atom_site_fract_z
 _atom_site_occupancy
  H  H0  4  -0.03131216  0.17985505  0.18880026  1
  H  H1  4  -0.01538012  0.36886913  0.35564679  1
  H  H2  4  -0.00755844  0.77591061  0.13508671  1
  H  H3  4  0.01809592  0.09521453  0.37572809  1
  H  H4  4  0.13067097  1.07814770  0.62148233  1
  H  H5  4  0.15110974  1.39043447  0.81655623  1
  H  H6  4  0.22215445  0.96239634  0.05205785  1
  H  H7  4  0.23723784  0.84739036  0.55311211  1
  C  C8  4  0.00740445  0.23168030  0.29040947  1
  C  C9  4  0.07872065  0.30104478  0.22568490  1
  C  C10  4  0.09652913  0.75041235  0.09766042  1
  C  C11  4  0.17171418  0.70159018  0.17894385  1
  C  C12  4  0.18377743  0.52897401  0.29133870  1
  C  C13  4  0.18600561  1.11462604  0.67681409  1
  C  C14  4  0.19720189  1.28828632  0.78671235  1
  C  C15  4  0.23186913  0.82884117  0.13917726  1
  C  C16  4  0.24524620  0.98305873  0.63838514  1
  O  O17  4  0.04332885  0.75390910  0.19719754  1
  O  O18  4  0.08642117  0.78316211  -0.05027863  1
  O  O19  4  0.09534735  0.27299132  0.08824499  1
  O  O20  4  0.12476520  0.40527078  0.34189548  1
