###############################################################################################
#
# CIF file generated by modified CIFWriter class 
# in pymatgen (v2025.03.10) https://pymatgen.org/
#
###############################################################################################
data_MACE-OFF23(L)_261b33bf3620fc4
_symmetry_space_group_name_H-M   P2/c
_cell_length_a   11.07960232
_cell_length_b   8.76837047
_cell_length_c   9.18797615
_cell_angle_alpha   90.00000000
_cell_angle_beta   80.75191562
_cell_angle_gamma   90.00000000
_symmetry_Int_Tables_number   13
_chemical_formula_moiety   'C9 H8 O4'
_chemical_formula_sum   'H32 C36 O16'
_cell_volume   881.01000625
_cell_formula_units_Z   4
loop_
 _symmetry_equiv_pos_site_id
 _symmetry_equiv_pos_as_xyz
  1  'x, y, z'
  2  '-x, -y, -z'
  3  '-x, y, -z+1/2'
  4  'x, -y, z+1/2'
loop_
 _atom_site_type_symbol
 _atom_site_label
 _atom_site_symmetry_multiplicity
 _atom_site_fract_x
 _atom_site_fract_y
 _atom_site_fract_z
 _atom_site_occupancy
  H  H0  4  0.01255789  0.13282423  0.50111481  1
  H  H1  4  0.03479354  0.49959743  0.61419520  1
  H  H2  4  0.12360430  0.37592029  0.20217938  1
  H  H3  4  0.14821640  0.61429415  0.50685785  1
  H  H4  4  0.24517726  1.16940485  0.22400197  1
  H  H5  4  0.36136671  0.33807938  0.88487096  1
  H  H6  4  0.40092508  -0.14921428  0.88526983  1
  H  H7  4  0.46390043  0.89201227  0.46132359  1
  C  C8  4  0.11878947  0.95617295  0.11990730  1
  C  C9  4  0.12537538  0.45058368  0.10741344  1
  C  C10  4  0.21359194  0.93030329  0.21499818  1
  C  C11  4  0.21524895  0.42368128  0.61376663  1
  C  C12  4  0.24704554  0.78797216  0.26338883  1
  C  C13  4  0.27155154  -0.05910120  0.76002923  1
  C  C14  4  0.33756277  0.22580469  0.85015318  1
  C  C15  4  0.35987080  1.04700389  0.34981068  1
  C  C16  4  0.39363783  0.90376975  0.39330742  1
  O  O17  4  0.07498056  0.16502353  0.56367818  1
  O  O18  4  0.08508157  -0.08592761  0.59722679  1
  O  O19  4  0.18237358  0.34253101  0.73993778  1
  O  O20  4  0.30421949  0.39456055  0.52525865  1
