###############################################################################################
#
# CIF file generated by modified CIFWriter class 
# in pymatgen (v2025.03.10) https://pymatgen.org/
#
###############################################################################################
data_MACE-OFF23(L)_264522c0ba72335
_symmetry_space_group_name_H-M   P2/c
_cell_length_a   6.55853653
_cell_length_b   8.74456916
_cell_length_c   15.39792642
_cell_angle_alpha   90.00000000
_cell_angle_beta   91.57323487
_cell_angle_gamma   90.00000000
_symmetry_Int_Tables_number   13
_chemical_formula_moiety   'C9 H8 O4'
_chemical_formula_sum   'H32 C36 O16'
_cell_volume   882.76246845
_cell_formula_units_Z   4
loop_
 _symmetry_equiv_pos_site_id
 _symmetry_equiv_pos_as_xyz
  1  'x, y, z'
  2  '-x, -y, -z'
  3  '-x, y, -z+1/2'
  4  'x, -y, z+1/2'
loop_
 _atom_site_type_symbol
 _atom_site_label
 _atom_site_symmetry_multiplicity
 _atom_site_fract_x
 _atom_site_fract_y
 _atom_site_fract_z
 _atom_site_occupancy
  H  H0  4  0.11190686  0.51249640  0.32895387  1
  H  H1  4  0.15608423  0.07444160  0.79824231  1
  H  H2  4  0.22977263  0.63178126  0.89270688  1
  H  H3  4  0.24231432  0.60176542  0.63203833  1
  H  H4  4  0.29855698  1.14316521  0.54739393  1
  H  H5  4  0.30858029  0.80088738  0.74544621  1
  H  H6  4  0.35044831  1.07188596  0.70017794  1
  H  H7  4  0.36821196  0.45581599  0.30921043  1
  C  C8  4  0.21166185  0.02579155  0.91356754  1
  C  C9  4  0.23023017  0.23779922  1.02902686  1
  C  C10  4  0.24211719  0.08494122  1.00351000  1
  C  C11  4  0.25313226  0.27868750  1.11540377  1
  C  C12  4  0.25579014  0.52500425  0.85843119  1
  C  C13  4  0.28441110  -0.02525087  1.06685978  1
  C  C14  4  0.29209982  0.83232214  0.67777606  1
  C  C15  4  0.31069201  0.98431529  0.65310264  1
  C  C16  4  0.33499101  0.59238723  0.42089868  1
  O  O17  4  0.17069494  0.86866998  0.35192641  1
  O  O18  4  0.18263354  0.35311537  0.97043835  1
  O  O19  4  0.22148247  1.10803312  0.39538239  1
  O  O20  4  0.49141298  0.36489279  0.57097203  1
