###############################################################################################
#
# CIF file generated by modified CIFWriter class 
# in pymatgen (v2025.03.10) https://pymatgen.org/
#
###############################################################################################
data_MACE-OFF23(L)_269a25b59df9f7c
_symmetry_space_group_name_H-M   Pcc2
_cell_length_a   6.48218557
_cell_length_b   20.11332190
_cell_length_c   10.40409137
_cell_angle_alpha   90.00000000
_cell_angle_beta   90.00000000
_cell_angle_gamma   90.00000000
_symmetry_Int_Tables_number   27
_chemical_formula_moiety   'C9 H8 O4'
_chemical_formula_sum   'H32 C36 O16'
_cell_volume   1356.46759018
_cell_formula_units_Z   4
loop_
 _symmetry_equiv_pos_site_id
 _symmetry_equiv_pos_as_xyz
  1  'x, y, z'
  2  '-x, -y, z'
  3  '-x, y, z+1/2'
  4  'x, -y, z+1/2'
loop_
 _atom_site_type_symbol
 _atom_site_label
 _atom_site_symmetry_multiplicity
 _atom_site_fract_x
 _atom_site_fract_y
 _atom_site_fract_z
 _atom_site_occupancy
  H  H0  4  -0.12554473  0.29573267  0.51666529  1
  H  H1  4  0.05720061  0.84265441  -0.26098663  1
  H  H2  4  0.29544161  0.93942111  -0.27185319  1
  H  H3  4  0.32532362  0.35017177  0.71832560  1
  H  H4  4  0.34868996  0.14399147  0.03574669  1
  H  H5  4  0.38888960  0.30208961  0.85561368  1
  H  H6  4  0.40892317  1.05374119  -0.12268540  1
  H  H7  4  0.41921063  0.32064191  0.23970790  1
  C  C8  4  0.07526247  0.26039242  0.40484111  1
  C  C9  4  0.18673782  0.84696287  -0.19632657  1
  C  C10  4  0.21857140  0.79754726  -0.10520871  1
  C  C11  4  0.31982007  0.09909070  0.29889989  1
  C  C12  4  0.36142548  0.24747115  0.68293151  1
  C  C13  4  0.38525390  0.19775026  0.47757874  1
  C  C14  4  0.41873819  0.30924826  0.75427039  1
  C  C15  4  0.48033269  0.85527581  0.47243229  1
  C  C16  4  0.48519560  0.09499985  0.38299967  1
  O  O17  4  -0.04094078  0.25638057  0.51138927  1
  O  O18  4  0.06313041  0.69452419  -0.17047117  1
  O  O19  4  0.26821384  0.20068691  0.72382061  1
  O  O20  4  0.42864728  0.74884286  0.05872386  1
