###############################################################################################
#
# CIF file generated by modified CIFWriter class 
# in pymatgen (v2025.03.10) https://pymatgen.org/
#
###############################################################################################
data_MACE-OFF23(L)_26d55c8aa163690
_symmetry_space_group_name_H-M   P4_2
_cell_length_a   13.37003241
_cell_length_b   13.37003241
_cell_length_c   5.47905630
_cell_angle_alpha   90.00000000
_cell_angle_beta   90.00000000
_cell_angle_gamma   90.00000000
_symmetry_Int_Tables_number   77
_chemical_formula_moiety   'C9 H8 O4'
_chemical_formula_sum   'H32 C36 O16'
_cell_volume   979.42386857
_cell_formula_units_Z   4
loop_
 _symmetry_equiv_pos_site_id
 _symmetry_equiv_pos_as_xyz
  1  'x, y, z'
  2  '-y, x, z+1/2'
  3  '-x, -y, z'
  4  'y, -x, z+1/2'
loop_
 _atom_site_type_symbol
 _atom_site_label
 _atom_site_symmetry_multiplicity
 _atom_site_fract_x
 _atom_site_fract_y
 _atom_site_fract_z
 _atom_site_occupancy
  H  H0  4  0.04075337  0.19402359  1.16015704  1
  H  H1  4  0.04339548  0.31496960  0.82037484  1
  H  H2  4  0.06368683  0.68805031  0.39107281  1
  H  H3  4  0.06947957  0.82378744  0.69911386  1
  H  H4  4  0.11785729  0.48060055  -0.12315619  1
  H  H5  4  0.19263149  0.55085477  -0.32661691  1
  H  H6  4  0.24661225  0.45274949  -0.15026781  1
  H  H7  4  0.26173391  0.43232369  0.31731103  1
  C  C8  4  0.10017760  0.19158153  1.02732744  1
  C  C9  4  0.10151444  0.25933016  0.83668421  1
  C  C10  4  0.11898501  0.74689183  0.37969000  1
  C  C11  4  0.12192248  0.82360441  0.54939453  1
  C  C12  4  0.17724101  0.33935998  0.47632014  1
  C  C13  4  0.17840621  0.25850056  0.66509688  1
  C  C14  4  0.18681390  0.74693177  0.18943836  1
  C  C15  4  0.19182789  0.51257025  -0.15215721  1
  C  C16  4  0.21304549  0.58249232  0.05270021  1
  O  O17  4  0.10084831  0.37910914  0.40902703  1
  O  O18  4  0.17626077  0.67443676  0.00874149  1
  O  O19  4  0.25507576  0.56105335  0.24066748  1
  O  O20  4  0.26752479  0.36757762  0.40236547  1
