###############################################################################################
#
# CIF file generated by modified CIFWriter class 
# in pymatgen (v2025.03.10) https://pymatgen.org/
#
###############################################################################################
data_MACE-OFF23(L)_291486ccc9495c3
_symmetry_space_group_name_H-M   Pnc2
_cell_length_a   4.32857885
_cell_length_b   26.27167031
_cell_length_c   7.70744308
_cell_angle_alpha   90.00000000
_cell_angle_beta   90.00000000
_cell_angle_gamma   90.00000000
_symmetry_Int_Tables_number   30
_chemical_formula_moiety   'C9 H8 O4'
_chemical_formula_sum   'H32 C36 O16'
_cell_volume   876.48269189
_cell_formula_units_Z   4
loop_
 _symmetry_equiv_pos_site_id
 _symmetry_equiv_pos_as_xyz
  1  'x, y, z'
  2  '-x, -y, z'
  3  '-x, y+1/2, z+1/2'
  4  'x, -y+1/2, z+1/2'
loop_
 _atom_site_type_symbol
 _atom_site_label
 _atom_site_symmetry_multiplicity
 _atom_site_fract_x
 _atom_site_fract_y
 _atom_site_fract_z
 _atom_site_occupancy
  H  H0  4  -0.53551726  0.14412278  0.48805132  1
  H  H1  4  -0.36563029  0.23346704  0.48750440  1
  H  H2  4  -0.25982927  0.00233146  0.73211493  1
  H  H3  4  -0.20105847  0.05712638  1.32257678  1
  H  H4  4  -0.00143601  0.26380167  0.71216211  1
  H  H5  4  0.11351705  0.04232718  1.18130942  1
  H  H6  4  0.15003206  0.09004489  1.34128129  1
  H  H7  4  0.18334875  0.20395055  0.93940736  1
  C  C8  4  -0.38448307  0.07027087  0.69878468  1
  C  C9  4  -0.38076244  0.15770368  0.58726227  1
  C  C10  4  -0.28273241  0.20782872  0.58618330  1
  C  C11  4  -0.27853149  0.12395331  0.71399661  1
  C  C12  4  -0.12440939  0.11186610  1.12589193  1
  C  C13  4  -0.07803297  0.14197267  0.84150822  1
  C  C14  4  -0.07753136  0.22464401  0.71178673  1
  C  C15  4  -0.00763583  0.07244251  1.24934005  1
  C  C16  4  0.02525484  0.19163140  0.83965093  1
  O  O17  4  -0.60945780  0.05784522  0.61468881  1
  O  O18  4  -0.32548020  0.14222736  1.15467480  1
  O  O19  4  -0.21031981  0.03608553  0.77899296  1
  O  O20  4  0.02735993  0.10977192  0.97137401  1
