###############################################################################################
#
# CIF file generated by modified CIFWriter class 
# in pymatgen (v2025.03.10) https://pymatgen.org/
#
###############################################################################################
data_MACE-OFF23(L)_2a1a0b81c436038
_symmetry_space_group_name_H-M   Pca2_1
_cell_length_a   7.66265184
_cell_length_b   11.40415997
_cell_length_c   9.85305390
_cell_angle_alpha   90.00000000
_cell_angle_beta   90.00000000
_cell_angle_gamma   90.00000000
_symmetry_Int_Tables_number   29
_chemical_formula_moiety   'C9 H8 O4'
_chemical_formula_sum   'H32 C36 O16'
_cell_volume   861.02002647
_cell_formula_units_Z   4
loop_
 _symmetry_equiv_pos_site_id
 _symmetry_equiv_pos_as_xyz
  1  'x, y, z'
  2  '-x, -y, z+1/2'
  3  '-x+1/2, y, z+1/2'
  4  'x+1/2, -y, z'
loop_
 _atom_site_type_symbol
 _atom_site_label
 _atom_site_symmetry_multiplicity
 _atom_site_fract_x
 _atom_site_fract_y
 _atom_site_fract_z
 _atom_site_occupancy
  H  H0  4  -0.19251425  1.02275025  0.30059328  1
  H  H1  4  -0.08321865  0.47475379  -0.00497079  1
  H  H2  4  -0.01063645  0.70351496  0.51991339  1
  H  H3  4  0.04128338  0.96763077  0.14170560  1
  H  H4  4  0.07872726  0.81531594  0.41883372  1
  H  H5  4  0.09755338  0.12876097  0.38070506  1
  H  H6  4  0.12627404  0.33183622  0.30161404  1
  H  H7  4  0.16867826  0.67552783  0.40391500  1
  C  C8  4  -0.18107777  0.93269760  0.26807009  1
  C  C9  4  -0.15014369  0.70162335  0.17811420  1
  C  C10  4  -0.14801109  0.57662117  0.13410961  1
  C  C11  4  -0.04986678  0.90257334  0.17774243  1
  C  C12  4  -0.03352283  0.78778820  0.13478414  1
  C  C13  4  0.10976265  0.73618687  0.47569106  1
  C  C14  4  0.20239415  0.15169678  0.31290017  1
  C  C15  4  0.21788654  0.26617411  0.26815857  1
  C  C16  4  0.23424480  0.76660685  0.58707181  1
  O  O17  4  -0.21753149  0.49850077  0.19660604  1
  O  O18  4  -0.06951958  0.55725677  0.01445926  1
  O  O19  4  0.09795831  0.75997990  0.04329879  1
  O  O20  4  0.19431406  0.79599475  0.69965305  1
