###############################################################################################
#
# CIF file generated by modified CIFWriter class 
# in pymatgen (v2025.03.10) https://pymatgen.org/
#
###############################################################################################
data_MACE-OFF23(L)_2a9e9e8d240f542
_symmetry_space_group_name_H-M   P2/c
_cell_length_a   10.25459490
_cell_length_b   5.59933997
_cell_length_c   14.38835075
_cell_angle_alpha   90.00000000
_cell_angle_beta   90.53702045
_cell_angle_gamma   90.00000000
_symmetry_Int_Tables_number   13
_chemical_formula_moiety   'C9 H8 O4'
_chemical_formula_sum   'H32 C36 O16'
_cell_volume   826.12789270
_cell_formula_units_Z   4
loop_
 _symmetry_equiv_pos_site_id
 _symmetry_equiv_pos_as_xyz
  1  'x, y, z'
  2  '-x, -y, -z'
  3  '-x, y, -z+1/2'
  4  'x, -y, z+1/2'
loop_
 _atom_site_type_symbol
 _atom_site_label
 _atom_site_symmetry_multiplicity
 _atom_site_fract_x
 _atom_site_fract_y
 _atom_site_fract_z
 _atom_site_occupancy
  H  H0  4  -0.09524051  0.11001407  0.55861918  1
  H  H1  4  -0.07821412  0.89541180  0.18007671  1
  H  H2  4  0.04664377  1.01775086  0.11111622  1
  H  H3  4  0.16550405  0.38586284  0.28086820  1
  H  H4  4  0.29371318  0.98805599  0.80681948  1
  H  H5  4  0.31699039  0.71827242  -0.09676199  1
  H  H6  4  0.43303541  1.14300406  0.68162433  1
  H  H7  4  0.43553825  0.06361215  0.03091306  1
  C  C8  4  -0.02492047  0.12384513  0.61527650  1
  C  C9  4  0.03605164  0.36591205  0.61461731  1
  C  C10  4  0.22764080  0.31509544  0.22731457  1
  C  C11  4  0.23374532  0.56769947  0.64262776  1
  C  C12  4  0.29933206  0.10844119  0.24180163  1
  C  C13  4  0.30952078  0.65702801  0.57097647  1
  C  C14  4  0.32158762  0.55660740  0.47538944  1
  C  C15  4  0.37706366  0.98172432  0.67160484  1
  C  C16  4  0.37977669  0.13398432  0.08729264  1
  O  O17  4  -0.02057633  0.55172246  0.60241714  1
  O  O18  4  0.16566005  0.64550217  0.13266250  1
  O  O19  4  0.30782514  0.32068141  0.46853205  1
  O  O20  4  0.34677835  0.32012450  -0.09114390  1
