###############################################################################################
#
# CIF file generated by modified CIFWriter class 
# in pymatgen (v2025.03.10) https://pymatgen.org/
#
###############################################################################################
data_MACE-OFF23(L)_2df40f5d6dcbcd9
_symmetry_space_group_name_H-M   Pna2_1
_cell_length_a   9.71153013
_cell_length_b   10.91310407
_cell_length_c   8.37702359
_cell_angle_alpha   90.00000000
_cell_angle_beta   90.00000000
_cell_angle_gamma   90.00000000
_symmetry_Int_Tables_number   33
_chemical_formula_moiety   'C9 H8 O4'
_chemical_formula_sum   'H32 C36 O16'
_cell_volume   887.82158013
_cell_formula_units_Z   4
loop_
 _symmetry_equiv_pos_site_id
 _symmetry_equiv_pos_as_xyz
  1  'x, y, z'
  2  '-x, -y, z+1/2'
  3  '-x+1/2, y+1/2, z+1/2'
  4  'x+1/2, -y+1/2, z'
loop_
 _atom_site_type_symbol
 _atom_site_label
 _atom_site_symmetry_multiplicity
 _atom_site_fract_x
 _atom_site_fract_y
 _atom_site_fract_z
 _atom_site_occupancy
  H  H0  4  -0.10290055  0.83722276  0.80633312  1
  H  H1  4  -0.00525640  0.64629625  0.69237404  1
  H  H2  4  0.00465745  1.03731260  0.74043313  1
  H  H3  4  0.01830605  0.43854273  -0.17155068  1
  H  H4  4  0.05229382  0.71402178  -0.00869175  1
  H  H5  4  0.08012675  0.77569821  0.18252439  1
  H  H6  4  0.19136366  0.65867956  0.50529724  1
  H  H7  4  0.21002856  0.78787904  0.03070861  1
  C  C8  4  -0.01647613  0.84077534  0.72546348  1
  C  C9  4  0.03804416  0.73416537  0.66141176  1
  C  C10  4  0.04181491  0.95310890  0.68844542  1
  C  C11  4  0.12978677  0.73137991  0.08226253  1
  C  C12  4  0.14803473  0.74064397  0.55684783  1
  C  C13  4  0.15291570  0.95821923  0.58602255  1
  C  C14  4  0.17337451  0.34911247  -0.09625697  1
  C  C15  4  0.18437913  0.61067785  0.13505148  1
  C  C16  4  0.20712376  0.85274472  0.51597250  1
  O  O17  4  0.10131396  0.45194648  -0.10516294  1
  O  O18  4  0.13403425  0.54691144  0.23800212  1
  O  O19  4  0.14370941  0.25808397  -0.17186487  1
  O  O20  4  0.20486167  1.07456678  0.55171570  1
