###############################################################################################
#
# CIF file generated by modified CIFWriter class 
# in pymatgen (v2025.03.10) https://pymatgen.org/
#
###############################################################################################
data_MACE-OFF23(L)_2e9c9528d8b2a04
_symmetry_space_group_name_H-M   Pnn2
_cell_length_a   13.25468659
_cell_length_b   14.52694420
_cell_length_c   5.34823869
_cell_angle_alpha   90.00000000
_cell_angle_beta   90.00000000
_cell_angle_gamma   90.00000000
_symmetry_Int_Tables_number   34
_chemical_formula_moiety   'C9 H8 O4'
_chemical_formula_sum   'H32 C36 O16'
_cell_volume   1029.80385373
_cell_formula_units_Z   4
loop_
 _symmetry_equiv_pos_site_id
 _symmetry_equiv_pos_as_xyz
  1  'x, y, z'
  2  '-x, -y, z'
  3  '-x+1/2, y+1/2, z+1/2'
  4  'x+1/2, -y+1/2, z+1/2'
loop_
 _atom_site_type_symbol
 _atom_site_label
 _atom_site_symmetry_multiplicity
 _atom_site_fract_x
 _atom_site_fract_y
 _atom_site_fract_z
 _atom_site_occupancy
  H  H0  4  -0.04747317  0.76858573  0.49441130  1
  H  H1  4  0.00728103  0.92796711  0.56020389  1
  H  H2  4  0.03439215  0.08458416  0.07756958  1
  H  H3  4  0.08912339  0.49291470  0.40773638  1
  H  H4  4  0.11267351  0.04767495  -0.16999846  1
  H  H5  4  0.11602542  -0.00993105  0.12380309  1
  H  H6  4  0.18424467  0.34072816  0.02088172  1
  H  H7  4  0.19101305  0.96591986  0.56875830  1
  C  C8  4  0.03193378  0.78500776  0.49932207  1
  C  C9  4  0.06074501  0.62016549  0.42339177  1
  C  C10  4  0.06330830  0.87476238  0.53720083  1
  C  C11  4  0.10191455  0.71432328  0.46664179  1
  C  C12  4  0.10781600  0.05594689  0.03062113  1
  C  C13  4  0.16542047  0.89586006  0.54399111  1
  C  C14  4  0.18731052  0.12057708  0.12074627  1
  C  C15  4  0.20410962  0.73690340  0.47619521  1
  C  C16  4  0.23583712  0.82641335  0.51448171  1
  O  O17  4  -0.02908039  0.60805285  0.38247648  1
  O  O18  4  0.12572687  0.55188122  0.43490248  1
  O  O19  4  0.21577240  0.12873118  0.33255071  1
  O  O20  4  0.22145196  0.17245521  -0.07159538  1
