###############################################################################################
#
# CIF file generated by modified CIFWriter class 
# in pymatgen (v2025.03.10) https://pymatgen.org/
#
###############################################################################################
data_MACE-OFF23(L)_35561788c86a0af
_symmetry_space_group_name_H-M   P4_2
_cell_length_a   15.47639968
_cell_length_b   15.47639968
_cell_length_c   4.81197549
_cell_angle_alpha   90.00000000
_cell_angle_beta   90.00000000
_cell_angle_gamma   90.00000000
_symmetry_Int_Tables_number   77
_chemical_formula_moiety   'C9 H8 O4'
_chemical_formula_sum   'H32 C36 O16'
_cell_volume   1152.55930115
_cell_formula_units_Z   4
loop_
 _symmetry_equiv_pos_site_id
 _symmetry_equiv_pos_as_xyz
  1  'x, y, z'
  2  '-y, x, z+1/2'
  3  '-x, -y, z'
  4  'y, -x, z+1/2'
loop_
 _atom_site_type_symbol
 _atom_site_label
 _atom_site_symmetry_multiplicity
 _atom_site_fract_x
 _atom_site_fract_y
 _atom_site_fract_z
 _atom_site_occupancy
  H  H0  4  0.05629514  0.58089819  0.03657974  1
  H  H1  4  0.06362224  0.45696870  -0.29146787  1
  H  H2  4  0.11486215  0.76111757  0.61651730  1
  H  H3  4  0.17703850  0.20405449  0.99001208  1
  H  H4  4  0.18797191  0.35564107  -0.26343621  1
  H  H5  4  0.21807620  0.74619172  0.76114933  1
  H  H6  4  0.30039394  0.37901862  0.08171453  1
  H  H7  4  0.36394689  0.57064870  0.74454154  1
  C  C8  4  0.10904997  0.53536166  0.04445439  1
  C  C9  4  0.11323848  0.46589114  -0.13601203  1
  C  C10  4  0.17366700  0.54857221  0.23765599  1
  C  C11  4  0.18211951  0.40913845  -0.12124029  1
  C  C12  4  0.18356019  0.76071142  0.56976115  1
  C  C13  4  0.20451379  0.69208760  0.36226507  1
  C  C14  4  0.24411306  0.49244154  0.25658042  1
  C  C15  4  0.24630813  0.42261405  0.07392036  1
  C  C16  4  0.31853423  0.50129574  0.45325010  1
  O  O17  4  0.16073215  0.61828243  0.41621618  1
  O  O18  4  0.25352051  0.69948730  0.17029375  1
  O  O19  4  0.31169437  0.56711198  0.62990892  1
  O  O20  4  0.37944478  0.45251407  0.45627438  1
