###############################################################################################
#
# CIF file generated by modified CIFWriter class 
# in pymatgen (v2025.03.10) https://pymatgen.org/
#
###############################################################################################
data_MACE-OFF23(L)_366d524b33cfd6b
_symmetry_space_group_name_H-M   Pnc2
_cell_length_a   8.00788910
_cell_length_b   12.84821615
_cell_length_c   8.12783321
_cell_angle_alpha   90.00000000
_cell_angle_beta   90.00000000
_cell_angle_gamma   90.00000000
_symmetry_Int_Tables_number   30
_chemical_formula_moiety   'C9 H8 O4'
_chemical_formula_sum   'H32 C36 O16'
_cell_volume   836.24910771
_cell_formula_units_Z   4
loop_
 _symmetry_equiv_pos_site_id
 _symmetry_equiv_pos_as_xyz
  1  'x, y, z'
  2  '-x, -y, z'
  3  '-x, y+1/2, z+1/2'
  4  'x, -y+1/2, z+1/2'
loop_
 _atom_site_type_symbol
 _atom_site_label
 _atom_site_symmetry_multiplicity
 _atom_site_fract_x
 _atom_site_fract_y
 _atom_site_fract_z
 _atom_site_occupancy
  H  H0  4  -0.30665868  0.09839959  0.39241439  1
  H  H1  4  -0.16710055  0.15183980  0.24198684  1
  H  H2  4  -0.14774330  0.02158100  0.30276095  1
  H  H3  4  -0.08046221  0.07781514  -0.04821482  1
  H  H4  4  0.27252543  0.03228178  0.58431384  1
  H  H5  4  0.39063607  0.73737999  0.76340674  1
  H  H6  4  0.42980095  0.09868103  0.14230855  1
  H  H7  4  0.47215317  0.58063724  0.24029963  1
  C  C8  4  -0.17974339  0.09930718  0.34571221  1
  C  C9  4  -0.06404309  0.13113370  0.48080306  1
  C  C10  4  0.14441245  0.11839036  -0.01178310  1
  C  C11  4  0.21354154  0.18947719  0.52376524  1
  C  C12  4  0.25287569  0.20576912  0.04368468  1
  C  C13  4  0.31030223  0.11253269  0.59508354  1
  C  C14  4  0.39802475  0.17997775  0.12917233  1
  C  C15  4  0.45200776  0.13963240  0.68239589  1
  C  C16  4  0.49751197  0.24330062  0.69710749  1
  O  O17  4  -0.09342518  0.13034007  0.62518437  1
  O  O18  4  -0.01477106  0.14141796  -0.02221678  1
  O  O19  4  0.08650027  0.15983850  0.41741076  1
  O  O20  4  0.19993230  0.03106298  -0.03571743  1
