###############################################################################################
#
# CIF file generated by modified CIFWriter class 
# in pymatgen (v2025.03.10) https://pymatgen.org/
#
###############################################################################################
data_MACE-OFF23(L)_38c29991eb6e45f
_symmetry_space_group_name_H-M   P4_2
_cell_length_a   11.78270869
_cell_length_b   11.78270869
_cell_length_c   6.47043027
_cell_angle_alpha   90.00000000
_cell_angle_beta   90.00000000
_cell_angle_gamma   90.00000000
_symmetry_Int_Tables_number   77
_chemical_formula_moiety   'C9 H8 O4'
_chemical_formula_sum   'H32 C36 O16'
_cell_volume   898.30422448
_cell_formula_units_Z   4
loop_
 _symmetry_equiv_pos_site_id
 _symmetry_equiv_pos_as_xyz
  1  'x, y, z'
  2  '-y, x, z+1/2'
  3  '-x, -y, z'
  4  'y, -x, z+1/2'
loop_
 _atom_site_type_symbol
 _atom_site_label
 _atom_site_symmetry_multiplicity
 _atom_site_fract_x
 _atom_site_fract_y
 _atom_site_fract_z
 _atom_site_occupancy
  H  H0  4  -0.11640361  0.27011836  0.29900515  1
  H  H1  4  -0.08114414  0.12644588  0.28621394  1
  H  H2  4  -0.05863139  0.20166141  0.51978220  1
  H  H3  4  0.07967685  0.70707939  0.90823529  1
  H  H4  4  0.07995987  0.53574722  0.42608423  1
  H  H5  4  0.11328992  0.50026358  0.87213738  1
  H  H6  4  0.31048780  0.42817033  0.83527986  1
  H  H7  4  0.43303574  0.46881222  0.32648976  1
  C  C8  4  -0.05558570  0.20733225  0.35284545  1
  C  C9  4  0.06099904  0.23656418  0.27817105  1
  C  C10  4  0.16469612  0.67419580  0.88969152  1
  C  C11  4  0.18397959  0.55874170  0.86991974  1
  C  C12  4  0.22083222  0.47195934  0.37675456  1
  C  C13  4  0.25071850  0.25507648  0.39322059  1
  C  C14  4  0.28946787  0.36604610  0.37090959  1
  C  C15  4  0.29385553  0.51801528  0.84854702  1
  C  C16  4  0.38258753  0.59445895  0.84592244  1
  O  O17  4  0.08744126  0.26145738  0.10499096  1
  O  O18  4  0.11009864  0.45931842  0.42474880  1
  O  O19  4  0.13798090  0.22937903  0.43497592  1
  O  O20  4  0.25970948  0.56497749  0.34630705  1
