###############################################################################################
#
# CIF file generated by modified CIFWriter class 
# in pymatgen (v2025.03.10) https://pymatgen.org/
#
###############################################################################################
data_MACE-OFF23(L)_38da4111a812b68
_symmetry_space_group_name_H-M   Pcc2
_cell_length_a   10.15084010
_cell_length_b   14.57893134
_cell_length_c   7.21201246
_cell_angle_alpha   90.00000000
_cell_angle_beta   90.00000000
_cell_angle_gamma   90.00000000
_symmetry_Int_Tables_number   27
_chemical_formula_moiety   'C9 H8 O4'
_chemical_formula_sum   'H32 C36 O16'
_cell_volume   1067.29419156
_cell_formula_units_Z   4
loop_
 _symmetry_equiv_pos_site_id
 _symmetry_equiv_pos_as_xyz
  1  'x, y, z'
  2  '-x, -y, z'
  3  '-x, y, z+1/2'
  4  'x, -y, z+1/2'
loop_
 _atom_site_type_symbol
 _atom_site_label
 _atom_site_symmetry_multiplicity
 _atom_site_fract_x
 _atom_site_fract_y
 _atom_site_fract_z
 _atom_site_occupancy
  H  H0  4  -0.07211872  0.18735299  0.94783788  1
  H  H1  4  -0.03692449  0.42436468  0.64163329  1
  H  H2  4  -0.01920392  0.13869899  1.16071638  1
  H  H3  4  0.03057703  0.08977894  0.94691535  1
  H  H4  4  0.38355704  0.17371639  0.90386070  1
  H  H5  4  0.38957632  0.46996943  0.57922553  1
  H  H6  4  0.39949324  0.39070275  0.15005393  1
  H  H7  4  0.40325248  0.24253313  0.30991622  1
  C  C8  4  0.00845833  0.15342324  1.01970322  1
  C  C9  4  0.12858730  0.21268847  1.01685809  1
  C  C10  4  0.14966790  0.42366533  0.66180481  1
  C  C11  4  0.26912949  0.36851428  0.70554117  1
  C  C12  4  0.26941320  0.28403993  0.79603204  1
  C  C13  4  0.38660676  0.23870847  0.83250804  1
  C  C14  4  0.39047153  0.40591310  0.65375395  1
  C  C15  4  0.49254778  0.36156710  0.19163687  1
  C  C16  4  0.49473662  0.27743844  0.28145953  1
  O  O17  4  0.03691599  0.38009147  0.66557102  1
  O  O18  4  0.15215374  0.24118543  0.84007355  1
  O  O19  4  0.15890657  0.49438976  0.12390479  1
  O  O20  4  0.19776208  0.23203805  1.14563307  1
