###############################################################################################
#
# CIF file generated by modified CIFWriter class 
# in pymatgen (v2025.03.10) https://pymatgen.org/
#
###############################################################################################
data_MACE-OFF23(L)_3be033b282d0636
_symmetry_space_group_name_H-M   P2_1/c
_cell_length_a   6.94066376
_cell_length_b   8.97134835
_cell_length_c   13.49692417
_cell_angle_alpha   90.00000000
_cell_angle_beta   92.08857710
_cell_angle_gamma   90.00000000
_symmetry_Int_Tables_number   14
_chemical_formula_moiety   'C9 H8 O4'
_chemical_formula_sum   'H32 C36 O16'
_cell_volume   839.85618906
_cell_formula_units_Z   4
loop_
 _symmetry_equiv_pos_site_id
 _symmetry_equiv_pos_as_xyz
  1  'x, y, z'
  2  '-x, -y, -z'
  3  '-x, y+1/2, -z+1/2'
  4  'x, -y+1/2, z+1/2'
loop_
 _atom_site_type_symbol
 _atom_site_label
 _atom_site_symmetry_multiplicity
 _atom_site_fract_x
 _atom_site_fract_y
 _atom_site_fract_z
 _atom_site_occupancy
  H  H0  4  -0.46473337  0.72088513  0.64698793  1
  H  H1  4  -0.36281067  0.91920236  0.76648777  1
  H  H2  4  -0.25120100  0.84604559  0.01002245  1
  H  H3  4  -0.04506802  1.03717381  0.75278056  1
  H  H4  4  0.24313476  0.56717919  0.34775610  1
  H  H5  4  0.34807065  0.74539851  0.36104182  1
  H  H6  4  0.46225584  0.58574714  0.41639284  1
  H  H7  4  0.46348423  0.50506372  0.07225346  1
  C  C8  4  -0.32794437  0.77657733  0.64032355  1
  C  C9  4  -0.27057233  0.61345885  0.20762836  1
  C  C10  4  -0.20934310  0.73722219  0.56436676  1
  C  C11  4  -0.09211625  0.95266304  0.70035711  1
  C  C12  4  -0.03103359  0.80414674  0.55750611  1
  C  C13  4  0.03180509  0.91171417  0.62577278  1
  C  C14  4  0.21660841  0.83802656  -0.00991301  1
  C  C15  4  0.22440113  0.51583484  0.12884070  1
  C  C16  4  0.32562950  0.86024080  -0.10181068  1
  O  O17  4  0.07683891  0.73379004  -0.02339600  1
  O  O18  4  0.24096725  0.90427925  0.06722842  1
  O  O19  4  0.28011368  0.43607135  0.19586248  1
  O  O20  4  0.33861625  0.54721966  0.05359412  1
