###############################################################################################
#
# CIF file generated by modified CIFWriter class 
# in pymatgen (v2025.03.10) https://pymatgen.org/
#
###############################################################################################
data_MACE-OFF23(L)_3dd8b0112fa42be
_symmetry_space_group_name_H-M   Pca2_1
_cell_length_a   13.10946624
_cell_length_b   9.35841167
_cell_length_c   6.61701351
_cell_angle_alpha   90.00000000
_cell_angle_beta   90.00000000
_cell_angle_gamma   90.00000000
_symmetry_Int_Tables_number   29
_chemical_formula_moiety   'C9 H8 O4'
_chemical_formula_sum   'H32 C36 O16'
_cell_volume   811.80024148
_cell_formula_units_Z   4
loop_
 _symmetry_equiv_pos_site_id
 _symmetry_equiv_pos_as_xyz
  1  'x, y, z'
  2  '-x, -y, z+1/2'
  3  '-x+1/2, y, z+1/2'
  4  'x+1/2, -y, z'
loop_
 _atom_site_type_symbol
 _atom_site_label
 _atom_site_symmetry_multiplicity
 _atom_site_fract_x
 _atom_site_fract_y
 _atom_site_fract_z
 _atom_site_occupancy
  H  H0  4  -0.06560634  0.49982292  0.01846501  1
  H  H1  4  -0.02209346  0.95989430  -0.04964208  1
  H  H2  4  0.04002286  0.28485535  0.07066986  1
  H  H3  4  0.19401193  1.07512277  0.11942335  1
  H  H4  4  0.19870284  1.01154543  0.75045341  1
  H  H5  4  0.20193755  1.10498817  0.38188070  1
  H  H6  4  0.20922943  0.55358464  0.74001048  1
  H  H7  4  0.22119489  0.31345467  0.18269964  1
  C  C8  4  -0.01716244  0.76937686  0.05347973  1
  C  C9  4  0.01276620  0.50981040  0.06647695  1
  C  C10  4  0.05253118  0.64660656  0.09280014  1
  C  C11  4  0.07225052  0.38943146  0.09642930  1
  C  C12  4  0.15344044  0.65918724  0.15642298  1
  C  C13  4  0.16352349  0.89433632  0.29205245  1
  C  C14  4  0.17269649  0.40487974  0.15858755  1
  C  C15  4  0.21301976  0.53981229  0.19006598  1
  C  C16  4  0.21984336  1.03034162  0.26223817  1
  O  O17  4  -0.10688275  0.76578989  0.09488508  1
  O  O18  4  0.02686188  0.88048122  -0.03814836  1
  O  O19  4  0.08906234  0.87801542  0.39770738  1
  O  O20  4  0.20287771  0.78977552  0.17707832  1
