###############################################################################################
#
# CIF file generated by modified CIFWriter class 
# in pymatgen (v2025.03.10) https://pymatgen.org/
#
###############################################################################################
data_MACE-OFF23(L)_3e1f121a7c446b3
_symmetry_space_group_name_H-M   P4_2
_cell_length_a   14.59535156
_cell_length_b   14.59535156
_cell_length_c   4.40460403
_cell_angle_alpha   90.00000000
_cell_angle_beta   90.00000000
_cell_angle_gamma   90.00000000
_symmetry_Int_Tables_number   77
_chemical_formula_moiety   'C9 H8 O4'
_chemical_formula_sum   'H32 C36 O16'
_cell_volume   938.28763398
_cell_formula_units_Z   4
loop_
 _symmetry_equiv_pos_site_id
 _symmetry_equiv_pos_as_xyz
  1  'x, y, z'
  2  '-y, x, z+1/2'
  3  '-x, -y, z'
  4  'y, -x, z+1/2'
loop_
 _atom_site_type_symbol
 _atom_site_label
 _atom_site_symmetry_multiplicity
 _atom_site_fract_x
 _atom_site_fract_y
 _atom_site_fract_z
 _atom_site_occupancy
  H  H0  4  0.01301768  0.25784207  0.40011655  1
  H  H1  4  0.07743554  0.52590542  0.03412114  1
  H  H2  4  0.09083755  0.12385344  0.62337608  1
  H  H3  4  0.11229666  0.73913952  1.09185904  1
  H  H4  4  0.23908481  0.65046035  0.86657800  1
  H  H5  4  0.34697372  0.53530614  -0.07861779  1
  H  H6  4  0.36306321  0.59445442  0.27308644  1
  H  H7  4  0.43197584  0.49885984  0.17748592  1
  C  C8  4  0.08093754  0.39978710  0.12549941  1
  C  C9  4  0.08670960  0.25273994  0.39369069  1
  C  C10  4  0.13056928  0.17757070  0.51807635  1
  C  C11  4  0.13606745  0.32420090  0.26198705  1
  C  C12  4  0.17159494  0.77463797  1.00483051  1
  C  C13  4  0.23149631  0.31917012  0.26702008  1
  C  C14  4  0.24244600  0.72429289  0.87907239  1
  C  C15  4  0.29753641  0.46536703  0.30993769  1
  C  C16  4  0.36390568  0.52855892  0.16018054  1
  O  O17  4  0.00062784  0.38784184  0.05642046  1
  O  O18  4  0.12284251  0.47834856  0.09008747  1
  O  O19  4  0.25962706  0.47830770  0.54700314  1
  O  O20  4  0.28708633  0.38682411  0.14620782  1
