###############################################################################################
#
# CIF file generated by modified CIFWriter class 
# in pymatgen (v2025.03.10) https://pymatgen.org/
#
###############################################################################################
data_MACE-OFF23(L)_3ecf9bcac3b26ac
_symmetry_space_group_name_H-M   P2_1/c
_cell_length_a   5.61213456
_cell_length_b   11.11190670
_cell_length_c   14.48170848
_cell_angle_alpha   90.00000000
_cell_angle_beta   115.90833167
_cell_angle_gamma   90.00000000
_symmetry_Int_Tables_number   14
_chemical_formula_moiety   'C9 H8 O4'
_chemical_formula_sum   'H32 C36 O16'
_cell_volume   812.33441865
_cell_formula_units_Z   4
loop_
 _symmetry_equiv_pos_site_id
 _symmetry_equiv_pos_as_xyz
  1  'x, y, z'
  2  '-x, -y, -z'
  3  '-x, y+1/2, -z+1/2'
  4  'x, -y+1/2, z+1/2'
loop_
 _atom_site_type_symbol
 _atom_site_label
 _atom_site_symmetry_multiplicity
 _atom_site_fract_x
 _atom_site_fract_y
 _atom_site_fract_z
 _atom_site_occupancy
  H  H0  4  -0.12283708  0.42187979  0.24015448  1
  H  H1  4  0.08494568  0.47809305  0.18878204  1
  H  H2  4  0.08919507  0.92915740  1.05464826  1
  H  H3  4  0.14394606  0.74170907  0.67208377  1
  H  H4  4  0.22187207  1.11012236  0.80264629  1
  H  H5  4  0.27361313  0.18679731  0.16790678  1
  H  H6  4  0.38742353  0.07715023  0.45116406  1
  H  H7  4  0.40491520  0.92032296  0.66730566  1
  C  C8  4  0.07481139  0.45722095  0.26019049  1
  C  C9  4  0.10691648  0.93062571  0.82084255  1
  C  C10  4  0.20381195  0.85133096  1.05466702  1
  C  C11  4  0.23558741  0.75554336  1.12028091  1
  C  C12  4  0.31306505  0.65349499  0.48575031  1
  C  C13  4  0.38051800  0.65568645  1.11777974  1
  C  C14  4  0.40383286  0.23303469  0.58557140  1
  C  C15  4  0.46355860  0.75214724  0.48323269  1
  C  C16  4  0.49466867  0.84702163  0.55044697  1
  O  O17  4  -0.00449549  0.66353054  0.28708971  1
  O  O18  4  0.26918279  0.94591800  0.92158264  1
  O  O19  4  0.32340740  0.13720351  0.59926427  1
  O  O20  4  0.37423826  0.16588893  0.12958142  1
