###############################################################################################
#
# CIF file generated by modified CIFWriter class 
# in pymatgen (v2025.03.10) https://pymatgen.org/
#
###############################################################################################
data_MACE-OFF23(L)_43059c728e3549e
_symmetry_space_group_name_H-M   P2_12_12
_cell_length_a   14.42734063
_cell_length_b   7.48519196
_cell_length_c   7.82000075
_cell_angle_alpha   90.00000000
_cell_angle_beta   90.00000000
_cell_angle_gamma   90.00000000
_symmetry_Int_Tables_number   18
_chemical_formula_moiety   'C9 H8 O4'
_chemical_formula_sum   'H32 C36 O16'
_cell_volume   844.49293879
_cell_formula_units_Z   4
loop_
 _symmetry_equiv_pos_site_id
 _symmetry_equiv_pos_as_xyz
  1  'x, y, z'
  2  '-x, -y, z'
  3  '-x+1/2, y+1/2, -z'
  4  'x+1/2, -y+1/2, -z'
loop_
 _atom_site_type_symbol
 _atom_site_label
 _atom_site_symmetry_multiplicity
 _atom_site_fract_x
 _atom_site_fract_y
 _atom_site_fract_z
 _atom_site_occupancy
  H  H0  4  -0.12004042  0.68675322  -0.08772591  1
  H  H1  4  -0.11674216  0.66251553  0.22699357  1
  H  H2  4  0.01965878  0.79185661  -0.24278008  1
  H  H3  4  0.02862213  0.72144378  0.38459671  1
  H  H4  4  0.15730738  0.50008331  0.69941988  1
  H  H5  4  0.17285684  0.31582322  0.55932360  1
  H  H6  4  0.18976728  0.53862391  0.48444540  1
  H  H7  4  0.23167457  0.57530933  1.11432142  1
  C  C8  4  -0.05727800  0.71685691  -0.01866658  1
  C  C9  4  -0.05526370  0.70156093  0.15779277  1
  C  C10  4  0.02068390  0.77431009  -0.10564048  1
  C  C11  4  0.02553047  0.73619373  0.24746738  1
  C  C12  4  0.10144309  0.81585984  -0.01676249  1
  C  C13  4  0.10331637  0.79124145  0.15960889  1
  C  C14  4  0.17973434  0.89220580  -0.11685031  1
  C  C15  4  0.19731196  0.44894193  0.59212248  1
  C  C16  4  0.20311981  0.94244732  0.35675696  1
  O  O17  4  0.14206095  1.03952832  0.40122028  1
  O  O18  4  0.18847350  0.80494551  0.24251319  1
  O  O19  4  0.19491885  0.85554566  -0.26419239  1
  O  O20  4  0.22932178  1.01481467  -0.03151988  1
