###############################################################################################
#
# CIF file generated by modified CIFWriter class 
# in pymatgen (v2025.03.10) https://pymatgen.org/
#
###############################################################################################
data_MACE-OFF23(L)_477c3c797f3bff4
_symmetry_space_group_name_H-M   P2/c
_cell_length_a   11.38040804
_cell_length_b   6.04738411
_cell_length_c   13.54936030
_cell_angle_alpha   90.00000000
_cell_angle_beta   92.67191677
_cell_angle_gamma   90.00000000
_symmetry_Int_Tables_number   13
_chemical_formula_moiety   'C9 H8 O4'
_chemical_formula_sum   'H32 C36 O16'
_cell_volume   931.47623048
_cell_formula_units_Z   4
loop_
 _symmetry_equiv_pos_site_id
 _symmetry_equiv_pos_as_xyz
  1  'x, y, z'
  2  '-x, -y, -z'
  3  '-x, y, -z+1/2'
  4  'x, -y, z+1/2'
loop_
 _atom_site_type_symbol
 _atom_site_label
 _atom_site_symmetry_multiplicity
 _atom_site_fract_x
 _atom_site_fract_y
 _atom_site_fract_z
 _atom_site_occupancy
  H  H0  4  0.03780218  1.01009397  0.67965139  1
  H  H1  4  0.07489103  0.52033191  0.44335452  1
  H  H2  4  0.12904466  1.36032307  0.73792941  1
  H  H3  4  0.29753531  -0.51486426  0.14912446  1
  H  H4  4  0.32774682  0.56687736  0.33798846  1
  H  H5  4  0.37408158  1.31116879  0.50782573  1
  H  H6  4  0.41422267  0.21154018  -0.20008851  1
  H  H7  4  0.48024845  0.43299966  -0.12875965  1
  C  C8  4  0.08999360  0.75672003  0.53415005  1
  C  C9  4  0.11244851  -0.07777953  0.14389526  1
  C  C10  4  0.15448186  0.96202207  0.56383573  1
  C  C11  4  0.16334076  1.27415999  0.67570217  1
  C  C12  4  0.25020358  -0.05020676  0.01651838  1
  C  C13  4  0.25749615  -0.35976541  0.12663092  1
  C  C14  4  0.30075526  1.24785860  0.54690399  1
  C  C15  4  0.37589032  0.78727291  0.45205512  1
  C  C16  4  0.40315372  0.32982217  -0.14097945  1
  O  O17  4  0.00730039  0.69159644  0.58109909  1
  O  O18  4  0.12539309  0.65410387  0.45560829  1
  O  O19  4  0.29471782  0.94829578  0.43442451  1
  O  O20  4  0.41690160  0.25265158  0.03356748  1
