###############################################################################################
#
# CIF file generated by modified CIFWriter class 
# in pymatgen (v2025.03.10) https://pymatgen.org/
#
###############################################################################################
data_MACE-OFF23(L)_5003ed2e9bac010
_symmetry_space_group_name_H-M   P2_1/c
_cell_length_a   7.52800052
_cell_length_b   8.18219811
_cell_length_c   13.41703442
_cell_angle_alpha   90.00000000
_cell_angle_beta   105.07685417
_cell_angle_gamma   90.00000000
_symmetry_Int_Tables_number   14
_chemical_formula_moiety   'C9 H8 O4'
_chemical_formula_sum   'H32 C36 O16'
_cell_volume   797.98261878
_cell_formula_units_Z   4
loop_
 _symmetry_equiv_pos_site_id
 _symmetry_equiv_pos_as_xyz
  1  'x, y, z'
  2  '-x, -y, -z'
  3  '-x, y+1/2, -z+1/2'
  4  'x, -y+1/2, z+1/2'
loop_
 _atom_site_type_symbol
 _atom_site_label
 _atom_site_symmetry_multiplicity
 _atom_site_fract_x
 _atom_site_fract_y
 _atom_site_fract_z
 _atom_site_occupancy
  H  H0  4  -0.34690939  0.98609668  0.63047973  1
  H  H1  4  -0.32139664  0.44298007  0.01021156  1
  H  H2  4  -0.30678003  0.65498763  0.03916558  1
  H  H3  4  -0.10431983  0.50766299  0.41079183  1
  H  H4  4  0.23659319  0.75578742  0.58917148  1
  H  H5  4  0.31386920  0.25611184  0.63954339  1
  H  H6  4  0.43545580  0.19913504  0.82499440  1
  H  H7  4  0.47964710  0.62377678  0.45814180  1
  C  C8  4  -0.27534521  0.96714253  0.57055782  1
  C  C9  4  -0.07336746  0.51687321  0.11669583  1
  C  C10  4  0.13069431  0.94345357  0.89752943  1
  C  C11  4  0.17727009  0.84326604  0.72556583  1
  C  C12  4  0.24328242  0.87971801  0.82996608  1
  C  C13  4  0.29329816  0.78238893  0.66982675  1
  C  C14  4  0.42873470  0.65104814  0.37714704  1
  C  C15  4  0.45556083  0.28348803  0.67718240  1
  C  C16  4  0.47571095  0.75106707  0.71826691  1
  O  O17  4  -0.04527406  0.53625077  0.35517838  1
  O  O18  4  -0.00842593  0.64912944  0.17571502  1
  O  O19  4  0.02312262  1.09504154  0.60572784  1
  O  O20  4  0.20205772  0.52537732  0.48849437  1
