###############################################################################################
#
# CIF file generated by modified CIFWriter class 
# in pymatgen (v2025.03.10) https://pymatgen.org/
#
###############################################################################################
data_MACE-OFF23(L)_51c813b8b311d8c
_symmetry_space_group_name_H-M   P2_12_12_1
_cell_length_a   10.88797444
_cell_length_b   7.66890453
_cell_length_c   9.77810647
_cell_angle_alpha   90.00000000
_cell_angle_beta   90.00000000
_cell_angle_gamma   90.00000000
_symmetry_Int_Tables_number   19
_chemical_formula_moiety   'C9 H8 O4'
_chemical_formula_sum   'H32 C36 O16'
_cell_volume   816.46051387
_cell_formula_units_Z   4
loop_
 _symmetry_equiv_pos_site_id
 _symmetry_equiv_pos_as_xyz
  1  'x, y, z'
  2  'x+1/2, -y+1/2, -z'
  3  '-x, y+1/2, -z+1/2'
  4  '-x+1/2, -y, z+1/2'
loop_
 _atom_site_type_symbol
 _atom_site_label
 _atom_site_symmetry_multiplicity
 _atom_site_fract_x
 _atom_site_fract_y
 _atom_site_fract_z
 _atom_site_occupancy
  H  H0  4  -0.08633160  0.05653683  0.64109322  1
  H  H1  4  -0.03603403  0.05058615  0.88827538  1
  H  H2  4  0.01084619  0.78694181  0.42457037  1
  H  H3  4  0.06438779  0.16900004  0.47546333  1
  H  H4  4  0.15308011  0.15624661  1.25202638  1
  H  H5  4  0.18692499  0.82503176  0.72798556  1
  H  H6  4  0.22629721  0.36265507  1.27370710  1
  H  H7  4  0.22981244  0.73697111  0.05730782  1
  C  C8  4  0.00244527  0.10087586  0.67597076  1
  C  C9  4  0.03027058  0.09627621  0.81428190  1
  C  C10  4  0.08740778  0.16348032  0.58268100  1
  C  C11  4  0.13836260  0.74308079  0.30077602  1
  C  C12  4  0.14432023  0.15165257  0.85880552  1
  C  C13  4  0.20188810  0.21583712  0.62792267  1
  C  C14  4  0.20830159  0.28241964  1.06799294  1
  C  C15  4  0.22550372  0.24193134  1.21600776  1
  C  C16  4  0.23321401  0.20799502  0.76595112  1
  O  O17  4  0.07679952  0.64191254  0.23574434  1
  O  O18  4  0.09306968  0.82987071  0.40859703  1
  O  O19  4  0.16271950  0.14159173  0.99975776  1
  O  O20  4  0.22840759  0.41901434  1.01240697  1
