###############################################################################################
#
# CIF file generated by modified CIFWriter class 
# in pymatgen (v2025.03.10) https://pymatgen.org/
#
###############################################################################################
data_MACE-OFF23(L)_5281f482792920d
_symmetry_space_group_name_H-M   P4_3
_cell_length_a   12.03007291
_cell_length_b   12.03007291
_cell_length_c   7.04881635
_cell_angle_alpha   90.00000000
_cell_angle_beta   90.00000000
_cell_angle_gamma   90.00000000
_symmetry_Int_Tables_number   78
_chemical_formula_moiety   'C9 H8 O4'
_chemical_formula_sum   'H32 C36 O16'
_cell_volume   1020.12341171
_cell_formula_units_Z   4
loop_
 _symmetry_equiv_pos_site_id
 _symmetry_equiv_pos_as_xyz
  1  'x, y, z'
  2  '-y, x, z+3/4'
  3  '-x, -y, z+1/2'
  4  'y, -x, z+1/4'
loop_
 _atom_site_type_symbol
 _atom_site_label
 _atom_site_symmetry_multiplicity
 _atom_site_fract_x
 _atom_site_fract_y
 _atom_site_fract_z
 _atom_site_occupancy
  H  H0  4  -0.19198886  0.68685014  0.81603575  1
  H  H1  4  -0.05919693  0.35318707  0.88654720  1
  H  H2  4  0.02953313  0.88382798  0.74674595  1
  H  H3  4  0.06614437  0.09381251  0.70875248  1
  H  H4  4  0.10598822  0.17555508  0.51260260  1
  H  H5  4  0.12333228  0.25835298  0.90141978  1
  H  H6  4  0.28360712  0.57043162  0.80066159  1
  H  H7  4  0.29549524  0.36688531  0.85996849  1
  C  C8  4  -0.10602796  0.55943674  0.83413262  1
  C  C9  4  0.00901388  0.51369003  0.84028779  1
  C  C10  4  0.01681463  0.39941513  0.87012396  1
  C  C11  4  0.10032728  0.87596527  0.84167578  1
  C  C12  4  0.10620153  0.76003201  0.91608117  1
  C  C13  4  0.10736515  0.57335770  0.81532707  1
  C  C14  4  0.11876846  0.34667642  0.87645123  1
  C  C15  4  0.20955117  0.52122345  0.82132393  1
  C  C16  4  0.21553686  0.40768552  0.85279514  1
  O  O17  4  -0.18841705  0.50284403  0.83535761  1
  O  O18  4  -0.11335874  0.67147217  0.82724149  1
  O  O19  4  0.10663885  0.68609280  0.76981789  1
  O  O20  4  0.11188477  0.73326268  1.07921176  1
