###############################################################################################
#
# CIF file generated by modified CIFWriter class 
# in pymatgen (v2025.03.10) https://pymatgen.org/
#
###############################################################################################
data_MACE-OFF23(L)_54fbcf7e38e9475
_symmetry_space_group_name_H-M   P2/c
_cell_length_a   12.66688979
_cell_length_b   5.01058314
_cell_length_c   13.60947005
_cell_angle_alpha   90.00000000
_cell_angle_beta   65.23381228
_cell_angle_gamma   90.00000000
_symmetry_Int_Tables_number   13
_chemical_formula_moiety   'C9 H8 O4'
_chemical_formula_sum   'H32 C36 O16'
_cell_volume   784.32708872
_cell_formula_units_Z   4
loop_
 _symmetry_equiv_pos_site_id
 _symmetry_equiv_pos_as_xyz
  1  'x, y, z'
  2  '-x, -y, -z'
  3  '-x, y, -z+1/2'
  4  'x, -y, z+1/2'
loop_
 _atom_site_type_symbol
 _atom_site_label
 _atom_site_symmetry_multiplicity
 _atom_site_fract_x
 _atom_site_fract_y
 _atom_site_fract_z
 _atom_site_occupancy
  H  H0  4  0.00422218  1.13461794  0.33260810  1
  H  H1  4  0.09738638  0.50563214  0.99952656  1
  H  H2  4  0.09837885  -0.49929388  0.70083519  1
  H  H3  4  0.30844426  1.57399432  0.13541879  1
  H  H4  4  0.39809633  0.52987387  0.44791446  1
  H  H5  4  0.42442741  -0.28213657  0.70220815  1
  H  H6  4  0.46464368  0.22601230  0.99830629  1
  H  H7  4  0.47958093  0.29332816  0.64297013  1
  C  C8  4  0.09373409  0.21636118  0.91276873  1
  C  C9  4  0.09638934  1.17010693  0.30202652  1
  C  C10  4  0.14902670  1.37293476  0.22896038  1
  C  C11  4  0.16002900  -0.00274406  0.83865686  1
  C  C12  4  0.26746600  -0.41548955  0.69258612  1
  C  C13  4  0.27885344  1.04890632  0.30121819  1
  C  C14  4  0.33198777  1.25375686  0.22918410  1
  C  C15  4  0.36399972  0.07283856  0.91951220  1
  C  C16  4  0.44241350  0.27818849  0.93213729  1
  O  O17  4  -0.00745866  0.74133626  0.42935232  1
  O  O18  4  0.14932508  0.35776529  0.95723624  1
  O  O19  4  0.31916396  -0.11197484  0.97825431  1
  O  O20  4  0.35079388  0.88118585  0.32656701  1
