###############################################################################################
#
# CIF file generated by modified CIFWriter class 
# in pymatgen (v2025.03.10) https://pymatgen.org/
#
###############################################################################################
data_MACE-OFF23(L)_55b9d5a7b93bce9
_symmetry_space_group_name_H-M   P2_12_12_1
_cell_length_a   7.11607572
_cell_length_b   12.20893964
_cell_length_c   9.64491110
_cell_angle_alpha   90.00000000
_cell_angle_beta   90.00000000
_cell_angle_gamma   90.00000000
_symmetry_Int_Tables_number   19
_chemical_formula_moiety   'C9 H8 O4'
_chemical_formula_sum   'H32 C36 O16'
_cell_volume   837.94735817
_cell_formula_units_Z   4
loop_
 _symmetry_equiv_pos_site_id
 _symmetry_equiv_pos_as_xyz
  1  'x, y, z'
  2  '-x, y+1/2, -z+1/2'
  3  'x+1/2, -y+1/2, -z'
  4  '-x+1/2, -y, z+1/2'
loop_
 _atom_site_type_symbol
 _atom_site_label
 _atom_site_symmetry_multiplicity
 _atom_site_fract_x
 _atom_site_fract_y
 _atom_site_fract_z
 _atom_site_occupancy
  H  H0  4  -0.22294461  0.57471716  0.09200021  1
  H  H1  4  -0.12759180  0.82204998  0.41882309  1
  H  H2  4  -0.04545892  0.15183229  0.95966563  1
  H  H3  4  -0.03556418  0.47697776  -0.08632201  1
  H  H4  4  0.05004476  0.06948616  0.82439778  1
  H  H5  4  0.05360106  0.33670832  0.53839926  1
  H  H6  4  0.17909845  0.09406190  0.97922809  1
  H  H7  4  0.19803317  0.47862469  0.38701785  1
  C  C8  4  -0.12491635  0.72371849  0.26730859  1
  C  C9  4  -0.07617958  0.59311781  0.07719491  1
  C  C10  4  0.00220421  0.67374278  0.16151310  1
  C  C11  4  0.02844693  0.53906830  -0.02204696  1
  C  C12  4  0.08141660  0.12888540  0.90453841  1
  C  C13  4  0.17062051  0.22885333  0.84540462  1
  C  C14  4  0.19191268  0.69823194  0.14328995  1
  C  C15  4  0.20070879  0.35709436  0.54655180  1
  C  C16  4  0.21778492  0.56378129  -0.03688890  1
  O  O17  4  -0.05474937  0.81008190  0.33307197  1
  O  O18  4  0.20022945  0.31313634  0.90794309  1
  O  O19  4  0.21813085  0.21622878  0.71215323  1
  O  O20  4  0.22072958  0.81331701  0.70809671  1
