###############################################################################################
#
# CIF file generated by modified CIFWriter class 
# in pymatgen (v2025.03.10) https://pymatgen.org/
#
###############################################################################################
data_MACE-OFF23(L)_5854fb1cbe80b8f
_symmetry_space_group_name_H-M   P2_1/c
_cell_length_a   6.64741561
_cell_length_b   17.02329007
_cell_length_c   8.37928970
_cell_angle_alpha   90.00000000
_cell_angle_beta   101.10777937
_cell_angle_gamma   90.00000000
_symmetry_Int_Tables_number   14
_chemical_formula_moiety   'C9 H8 O4'
_chemical_formula_sum   'H32 C36 O16'
_cell_volume   930.44459384
_cell_formula_units_Z   4
loop_
 _symmetry_equiv_pos_site_id
 _symmetry_equiv_pos_as_xyz
  1  'x, y, z'
  2  '-x, -y, -z'
  3  '-x, y+1/2, -z+1/2'
  4  'x, -y+1/2, z+1/2'
loop_
 _atom_site_type_symbol
 _atom_site_label
 _atom_site_symmetry_multiplicity
 _atom_site_fract_x
 _atom_site_fract_y
 _atom_site_fract_z
 _atom_site_occupancy
  H  H0  4  -0.35670832  0.53300041  0.41557208  1
  H  H1  4  -0.24671141  0.40668887  0.31727287  1
  H  H2  4  -0.16346805  0.65382328  0.38362305  1
  H  H3  4  0.05760049  1.09742563  0.68475831  1
  H  H4  4  0.30565523  0.69587392  0.87860435  1
  H  H5  4  0.39607724  0.72423504  0.70302960  1
  H  H6  4  0.44079434  0.23074816  0.60199242  1
  H  H7  4  0.48397417  0.93218774  0.52126298  1
  C  C8  4  -0.22547004  0.96982666  0.85744082  1
  C  C9  4  -0.16296726  0.45943712  0.30176501  1
  C  C10  4  -0.11815791  0.59828075  0.33945169  1
  C  C11  4  0.00648445  1.04288963  0.72903372  1
  C  C12  4  0.05176484  0.90441182  0.76740982  1
  C  C13  4  0.11685636  0.97501117  0.70956128  1
  C  C14  4  0.29173913  0.51583379  0.12430869  1
  C  C15  4  0.32866971  0.81863091  0.85327257  1
  C  C16  4  0.40360385  0.73743472  0.83077069  1
  O  O17  4  0.14783466  0.83272824  0.75171341  1
  O  O18  4  0.35007803  1.04932654  0.59131199  1
  O  O19  4  0.37512621  0.91882987  0.58433820  1
  O  O20  4  0.41083042  0.86557757  0.95198489  1
