###############################################################################################
#
# CIF file generated by modified CIFWriter class 
# in pymatgen (v2025.03.10) https://pymatgen.org/
#
###############################################################################################
data_MACE-OFF23(L)_58ab7901c0e32a4
_symmetry_space_group_name_H-M   Pna2_1
_cell_length_a   11.67880269
_cell_length_b   12.20324287
_cell_length_c   6.18558349
_cell_angle_alpha   90.00000000
_cell_angle_beta   90.00000000
_cell_angle_gamma   90.00000000
_symmetry_Int_Tables_number   33
_chemical_formula_moiety   'C9 H8 O4'
_chemical_formula_sum   'H32 C36 O16'
_cell_volume   881.56481755
_cell_formula_units_Z   4
loop_
 _symmetry_equiv_pos_site_id
 _symmetry_equiv_pos_as_xyz
  1  'x, y, z'
  2  '-x, -y, z+1/2'
  3  '-x+1/2, y+1/2, z+1/2'
  4  'x+1/2, -y+1/2, z'
loop_
 _atom_site_type_symbol
 _atom_site_label
 _atom_site_symmetry_multiplicity
 _atom_site_fract_x
 _atom_site_fract_y
 _atom_site_fract_z
 _atom_site_occupancy
  H  H0  4  -0.00732953  0.34580078  0.38789016  1
  H  H1  4  0.00295241  0.29804952  0.65973135  1
  H  H2  4  0.01142582  0.18317055  0.05809099  1
  H  H3  4  0.06341953  -0.16935313  0.00932676  1
  H  H4  4  0.07245066  0.66059342  0.45623191  1
  H  H5  4  0.11638218  0.27298301  0.47305068  1
  H  H6  4  0.12649137  0.35401661  0.06030197  1
  H  H7  4  0.16536418  0.84427196  0.50623398  1
  C  C8  4  0.05020845  0.33024583  0.52305159  1
  C  C9  4  0.07349797  -0.01729793  0.00209265  1
  C  C10  4  0.10248140  0.43669533  0.58929789  1
  C  C11  4  0.10266331  0.18065116  0.03261180  1
  C  C12  4  0.15291677  0.07808532  0.00155731  1
  C  C13  4  0.16384764  0.66889343  0.47615014  1
  C  C14  4  0.16667424  0.27554691  0.03480874  1
  C  C15  4  0.21552104  0.76982879  0.50535132  1
  C  C16  4  0.22901256  0.57401558  0.47445669  1
  O  O17  4  -0.02958312  -0.00803462  -0.00060593  1
  O  O18  4  0.08536070  0.48401333  0.75649244  1
  O  O19  4  0.12420475  -0.11562390  0.00766941  1
  O  O20  4  0.17395556  0.47531233  0.43404321  1
