###############################################################################################
#
# CIF file generated by modified CIFWriter class 
# in pymatgen (v2025.03.10) https://pymatgen.org/
#
###############################################################################################
data_MACE-OFF23(L)_5a2f95611d8c662
_symmetry_space_group_name_H-M   P-4
_cell_length_a   10.92161304
_cell_length_b   10.92161304
_cell_length_c   8.18529687
_cell_angle_alpha   90.00000000
_cell_angle_beta   90.00000000
_cell_angle_gamma   90.00000000
_symmetry_Int_Tables_number   81
_chemical_formula_moiety   'C9 H8 O4'
_chemical_formula_sum   'H32 C36 O16'
_cell_volume   976.35556324
_cell_formula_units_Z   4
loop_
 _symmetry_equiv_pos_site_id
 _symmetry_equiv_pos_as_xyz
  1  'x, y, z'
  2  'y, -x, -z'
  3  '-x, -y, z'
  4  '-y, x, -z'
loop_
 _atom_site_type_symbol
 _atom_site_label
 _atom_site_symmetry_multiplicity
 _atom_site_fract_x
 _atom_site_fract_y
 _atom_site_fract_z
 _atom_site_occupancy
  H  H0  4  -0.17816947  0.28907349  0.41270815  1
  H  H1  4  -0.15480148  0.17843523  0.25986248  1
  H  H2  4  -0.12713121  0.33336811  0.21285468  1
  H  H3  4  -0.03622566  0.85806885  0.98594647  1
  H  H4  4  0.12158084  0.51617912  0.80074783  1
  H  H5  4  0.18353137  0.43548950  0.36010157  1
  H  H6  4  0.31783048  0.44376134  0.69088006  1
  H  H7  4  0.40329913  0.47737006  0.38827196  1
  C  C8  4  -0.12157620  0.26471575  0.30877888  1
  C  C9  4  0.00823732  0.25130024  0.36411190  1
  C  C10  4  0.04744761  0.73655119  0.86145980  1
  C  C11  4  0.16796099  0.70571940  0.78678215  1
  C  C12  4  0.19119330  0.58115549  0.76559626  1
  C  C13  4  0.21035921  0.25762984  0.25945783  1
  C  C14  4  0.25024689  0.36779869  0.32403543  1
  C  C15  4  0.30161038  0.54084005  0.70347075  1
  C  C16  4  0.37410560  0.38998270  0.34091566  1
  O  O17  4  -0.03773645  0.66679797  0.86680059  1
  O  O18  4  0.04221172  0.84801282  0.92943698  1
  O  O19  4  0.04358772  0.24817053  0.50263395  1
  O  O20  4  0.08575857  0.24317159  0.23340024  1
