###############################################################################################
#
# CIF file generated by modified CIFWriter class 
# in pymatgen (v2025.03.10) https://pymatgen.org/
#
###############################################################################################
data_MACE-OFF23(L)_5dc6e77d661c835
_symmetry_space_group_name_H-M   P2/c
_cell_length_a   7.83498677
_cell_length_b   6.70824037
_cell_length_c   17.57726495
_cell_angle_alpha   90.00000000
_cell_angle_beta   89.86513636
_cell_angle_gamma   90.00000000
_symmetry_Int_Tables_number   13
_chemical_formula_moiety   'C9 H8 O4'
_chemical_formula_sum   'H32 C36 O16'
_cell_volume   923.84046302
_cell_formula_units_Z   4
loop_
 _symmetry_equiv_pos_site_id
 _symmetry_equiv_pos_as_xyz
  1  'x, y, z'
  2  '-x, -y, -z'
  3  '-x, y, -z+1/2'
  4  'x, -y, z+1/2'
loop_
 _atom_site_type_symbol
 _atom_site_label
 _atom_site_symmetry_multiplicity
 _atom_site_fract_x
 _atom_site_fract_y
 _atom_site_fract_z
 _atom_site_occupancy
  H  H0  4  0.07313121  -0.44119468  0.56108553  1
  H  H1  4  0.11645243  1.29568008  -0.06787507  1
  H  H2  4  0.15954130  1.25165918  0.17424672  1
  H  H3  4  0.17810196  0.37704495  0.80687740  1
  H  H4  4  0.25591199  0.03233174  0.41963902  1
  H  H5  4  0.35344329  0.52189496  0.25740703  1
  H  H6  4  0.37336703  0.75923452  0.30005271  1
  H  H7  4  0.48278304  0.47094635  0.93522883  1
  C  C8  4  0.13120864  -0.29658554  0.55393634  1
  C  C9  4  0.15674557  1.21630405  -0.01773442  1
  C  C10  4  0.18067985  -0.19131873  0.61807113  1
  C  C11  4  0.22046194  0.25389929  0.69860282  1
  C  C12  4  0.23397686  -0.03210660  0.47503907  1
  C  C13  4  0.25674555  1.00671724  0.11046442  1
  C  C14  4  0.28652449  0.34036043  0.77101534  1
  C  C15  4  0.28748184  0.07493953  0.53859752  1
  C  C16  4  0.37671138  0.73368815  0.02376707  1
  O  O17  4  0.10435823  0.67885999  0.16194809  1
  O  O18  4  0.30571306  0.08674028  0.67778320  1
  O  O19  4  0.37942681  0.66125197  -0.04034301  1
  O  O20  4  0.45457523  0.34748793  0.58182924  1
