###############################################################################################
#
# CIF file generated by modified CIFWriter class 
# in pymatgen (v2025.03.10) https://pymatgen.org/
#
###############################################################################################
data_MACE-OFF23(L)_5dd09f079fb7ce9
_symmetry_space_group_name_H-M   P2_1/c
_cell_length_a   7.03396256
_cell_length_b   5.94589980
_cell_length_c   19.81073956
_cell_angle_alpha   90.00000000
_cell_angle_beta   100.17622080
_cell_angle_gamma   90.00000000
_symmetry_Int_Tables_number   14
_chemical_formula_moiety   'C9 H8 O4'
_chemical_formula_sum   'H32 C36 O16'
_cell_volume   815.51535449
_cell_formula_units_Z   4
loop_
 _symmetry_equiv_pos_site_id
 _symmetry_equiv_pos_as_xyz
  1  'x, y, z'
  2  '-x, -y, -z'
  3  '-x, y+1/2, -z+1/2'
  4  'x, -y+1/2, z+1/2'
loop_
 _atom_site_type_symbol
 _atom_site_label
 _atom_site_symmetry_multiplicity
 _atom_site_fract_x
 _atom_site_fract_y
 _atom_site_fract_z
 _atom_site_occupancy
  H  H0  4  -0.05742446  1.21717908  0.55167058  1
  H  H1  4  0.05631844  0.29007311  0.71421998  1
  H  H2  4  0.11256916  1.19792521  0.49522855  1
  H  H3  4  0.12754616  1.42233149  0.55342452  1
  H  H4  4  0.17465365  0.08615421  0.82113297  1
  H  H5  4  0.19731251  -0.16552197  0.19500460  1
  H  H6  4  0.37938795  0.86201940  -0.00434785  1
  H  H7  4  0.45229856  -0.32417207  0.28308060  1
  C  C8  4  0.09137333  1.24498296  0.54642992  1
  C  C9  4  0.16791858  0.13636771  0.25205636  1
  C  C10  4  0.21892047  0.39172152  0.09927533  1
  C  C11  4  0.23390558  0.25177653  0.31209634  1
  C  C12  4  0.24655781  0.57121009  0.74128454  1
  C  C13  4  0.37856893  0.33611759  0.86236167  1
  C  C14  4  0.38999672  0.66243173  0.79079812  1
  C  C15  4  0.43571281  0.19578816  0.92466755  1
  C  C16  4  0.45599378  -0.04565080  0.35063771  1
  O  O17  4  0.16453652  0.97728129  0.63781749  1
  O  O18  4  0.33330490  0.46148869  0.43613007  1
  O  O19  4  0.40175255  0.75233894  0.03518176  1
  O  O20  4  0.40836937  0.34608132  0.10011353  1
