###############################################################################################
#
# CIF file generated by modified CIFWriter class 
# in pymatgen (v2025.03.10) https://pymatgen.org/
#
###############################################################################################
data_MACE-OFF23(L)_5ddf570cfbab92e
_symmetry_space_group_name_H-M   P2_12_12_1
_cell_length_a   4.40800691
_cell_length_b   10.21609355
_cell_length_c   17.59605176
_cell_angle_alpha   90.00000000
_cell_angle_beta   90.00000000
_cell_angle_gamma   90.00000000
_symmetry_Int_Tables_number   19
_chemical_formula_moiety   'C9 H8 O4'
_chemical_formula_sum   'H32 C36 O16'
_cell_volume   792.39615422
_cell_formula_units_Z   4
loop_
 _symmetry_equiv_pos_site_id
 _symmetry_equiv_pos_as_xyz
  1  'x, y, z'
  2  '-x+1/2, -y, z+1/2'
  3  'x+1/2, -y+1/2, -z'
  4  '-x, y+1/2, -z+1/2'
loop_
 _atom_site_type_symbol
 _atom_site_label
 _atom_site_symmetry_multiplicity
 _atom_site_fract_x
 _atom_site_fract_y
 _atom_site_fract_z
 _atom_site_occupancy
  H  H0  4  -0.20800946  0.51659692  0.27066871  1
  H  H1  4  -0.11040433  0.67109220  0.51199014  1
  H  H2  4  -0.08400262  0.81914352  0.74458882  1
  H  H3  4  -0.05767521  0.44068923  0.14285061  1
  H  H4  4  -0.05692709  0.75352232  0.99277202  1
  H  H5  4  0.04920426  0.52624290  0.54958260  1
  H  H6  4  0.16224066  0.73247701  0.63024536  1
  H  H7  4  0.19305019  -0.01898762  0.49610665  1
  C  C8  4  -0.08660243  0.56632512  0.50335006  1
  C  C9  4  -0.03293268  0.44384739  0.26382107  1
  C  C10  4  0.00687035  0.76256623  0.88659063  1
  C  C11  4  0.05155435  0.40018700  0.19244729  1
  C  C12  4  0.07484057  0.54074081  0.43013634  1
  C  C13  4  0.09272140  0.74662445  0.74958490  1
  C  C14  4  0.09927118  0.39084645  0.32784627  1
  C  C15  4  0.17567457  0.70440249  0.82196759  1
  C  C16  4  0.22942443  0.69623424  0.68522896  1
  O  O17  4  -0.19786190  0.83979304  0.87896238  1
  O  O18  4  -0.02181417  0.42755460  0.39784521  1
  O  O19  4  0.09196055  0.72078421  0.95590643  1
  O  O20  4  0.23008100  0.39231077  0.90258877  1
