###############################################################################################
#
# CIF file generated by modified CIFWriter class 
# in pymatgen (v2025.03.10) https://pymatgen.org/
#
###############################################################################################
data_MACE-OFF23(L)_5fabeaa3496442b
_symmetry_space_group_name_H-M   P2/c
_cell_length_a   7.76334626
_cell_length_b   4.11852724
_cell_length_c   27.10585234
_cell_angle_alpha   90.00000000
_cell_angle_beta   102.66795450
_cell_angle_gamma   90.00000000
_symmetry_Int_Tables_number   13
_chemical_formula_moiety   'C9 H8 O4'
_chemical_formula_sum   'H32 C36 O16'
_cell_volume   845.57335403
_cell_formula_units_Z   4
loop_
 _symmetry_equiv_pos_site_id
 _symmetry_equiv_pos_as_xyz
  1  'x, y, z'
  2  '-x, -y, -z'
  3  '-x, y, -z+1/2'
  4  'x, -y, z+1/2'
loop_
 _atom_site_type_symbol
 _atom_site_label
 _atom_site_symmetry_multiplicity
 _atom_site_fract_x
 _atom_site_fract_y
 _atom_site_fract_z
 _atom_site_occupancy
  H  H0  4  -0.07969384  -0.07195793  0.82709174  1
  H  H1  4  0.02908711  -0.45465873  0.83510855  1
  H  H2  4  0.06126271  0.24740802  0.52523465  1
  H  H3  4  0.07979540  -0.17648771  0.79140812  1
  H  H4  4  0.15902992  0.41808109  0.61389045  1
  H  H5  4  0.24968837  -0.11925639  0.48699389  1
  H  H6  4  0.36559087  0.32334946  0.76247463  1
  H  H7  4  0.46816340  1.32213494  0.46034201  1
  C  C8  4  0.04330440  1.19797772  0.32773724  1
  C  C9  4  0.18564536  0.16132138  0.54732897  1
  C  C10  4  0.18742379  -0.05885003  0.86781451  1
  C  C11  4  0.24010729  0.25754269  0.59724442  1
  C  C12  4  0.29066709  1.04430909  0.02602151  1
  C  C13  4  0.40073085  0.15206897  0.62650909  1
  C  C14  4  0.44959345  -0.15590037  0.55492407  1
  C  C15  4  0.45068435  0.73022634  0.17964196  1
  C  C16  4  0.49648214  1.05764077  0.39546401  1
  O  O17  4  0.17194571  0.14565350  0.89820731  1
  O  O18  4  0.34121582  0.39144396  0.70030136  1
  O  O19  4  0.34508622  -0.19422061  0.86609346  1
  O  O20  4  0.38241972  0.76405263  0.29740777  1
