###############################################################################################
#
# CIF file generated by modified CIFWriter class 
# in pymatgen (v2025.03.10) https://pymatgen.org/
#
###############################################################################################
data_MACE-OFF23(L)_618d93be71098b3
_symmetry_space_group_name_H-M   Pna2_1
_cell_length_a   7.09557236
_cell_length_b   9.07557808
_cell_length_c   13.37138554
_cell_angle_alpha   90.00000000
_cell_angle_beta   90.00000000
_cell_angle_gamma   90.00000000
_symmetry_Int_Tables_number   33
_chemical_formula_moiety   'C9 H8 O4'
_chemical_formula_sum   'H32 C36 O16'
_cell_volume   861.06937186
_cell_formula_units_Z   4
loop_
 _symmetry_equiv_pos_site_id
 _symmetry_equiv_pos_as_xyz
  1  'x, y, z'
  2  '-x, -y, z+1/2'
  3  '-x+1/2, y+1/2, z+1/2'
  4  'x+1/2, -y+1/2, z'
loop_
 _atom_site_type_symbol
 _atom_site_label
 _atom_site_symmetry_multiplicity
 _atom_site_fract_x
 _atom_site_fract_y
 _atom_site_fract_z
 _atom_site_occupancy
  H  H0  4  -0.05622943  1.19287442  0.46807066  1
  H  H1  4  0.03219155  1.25739983  0.29442918  1
  H  H2  4  0.05174793  0.12747360  -0.21203990  1
  H  H3  4  0.10191577  0.98112445  0.55056555  1
  H  H4  4  0.13780230  0.35316137  -0.03282777  1
  H  H5  4  0.17950650  0.01392050  -0.29619798  1
  H  H6  4  0.19607360  0.54129527  -0.45217840  1
  H  H7  4  0.22208624  0.20546252  -0.29523135  1
  C  C8  4  -0.16481723  0.41676098  -0.17260268  1
  C  C9  4  0.05474954  1.13339026  0.43044770  1
  C  C10  4  0.10336171  1.17021500  0.33346684  1
  C  C11  4  0.14430679  1.01623238  0.47696301  1
  C  C12  4  0.15927165  0.48329620  -0.16622510  1
  C  C13  4  0.18612902  0.11130033  -0.24876008  1
  C  C14  4  0.21028618  0.44142389  -0.07054725  1
  C  C15  4  0.22487656  0.62911817  -0.32443672  1
  C  C16  4  0.24203787  1.09249497  0.28283924  1
  O  O17  4  -0.19007463  0.43699160  -0.08491810  1
  O  O18  4  0.00718043  0.42197124  -0.21680169  1
  O  O19  4  0.21443321  0.51074564  -0.38275682  1
  O  O20  4  0.21711578  0.75403337  -0.35603155  1
