###############################################################################################
#
# CIF file generated by modified CIFWriter class 
# in pymatgen (v2025.03.10) https://pymatgen.org/
#
###############################################################################################
data_MACE-OFF23(L)_61dc2f2c2bf1601
_symmetry_space_group_name_H-M   Pca2_1
_cell_length_a   11.37452688
_cell_length_b   10.16813983
_cell_length_c   7.45986633
_cell_angle_alpha   90.00000000
_cell_angle_beta   90.00000000
_cell_angle_gamma   90.00000000
_symmetry_Int_Tables_number   29
_chemical_formula_moiety   'C9 H8 O4'
_chemical_formula_sum   'H32 C36 O16'
_cell_volume   862.79157837
_cell_formula_units_Z   4
loop_
 _symmetry_equiv_pos_site_id
 _symmetry_equiv_pos_as_xyz
  1  'x, y, z'
  2  '-x, -y, z+1/2'
  3  '-x+1/2, y, z+1/2'
  4  'x+1/2, -y, z'
loop_
 _atom_site_type_symbol
 _atom_site_label
 _atom_site_symmetry_multiplicity
 _atom_site_fract_x
 _atom_site_fract_y
 _atom_site_fract_z
 _atom_site_occupancy
  H  H0  4  -0.22982065  0.38635925  0.33557965  1
  H  H1  4  -0.16516051  0.51193499  0.06947695  1
  H  H2  4  -0.10844378  0.19909132  0.44567906  1
  H  H3  4  0.02072795  0.45169537  -0.08203369  1
  H  H4  4  0.11981424  -0.20101097  0.27891549  1
  H  H5  4  0.15154166  -0.10127871  0.46827907  1
  H  H6  4  0.21486052  0.13803703  0.44508417  1
  H  H7  4  0.23107892  -0.07759984  0.26733076  1
  C  C8  4  -0.15000493  0.35920810  0.26661956  1
  C  C9  4  -0.11348550  0.43035048  0.11783409  1
  C  C10  4  -0.08303963  0.25510739  0.32906999  1
  C  C11  4  -0.00964340  0.39687323  0.03282827  1
  C  C12  4  0.01929005  0.22142976  0.24076881  1
  C  C13  4  0.05628006  -0.00631797  0.26092234  1
  C  C14  4  0.05832258  0.29134658  0.09214689  1
  C  C15  4  0.14573786  -0.10365503  0.32282288  1
  C  C16  4  0.16944675  0.26361170  -0.00718020  1
  O  O17  4  -0.03106718  -0.02944664  0.17695747  1
  O  O18  4  0.08633168  0.11849265  0.31074544  1
  O  O19  4  0.21284450  0.14337931  0.01600862  1
  O  O20  4  0.21570755  0.34397628  -0.10361423  1
