###############################################################################################
#
# CIF file generated by modified CIFWriter class 
# in pymatgen (v2025.03.10) https://pymatgen.org/
#
###############################################################################################
data_MACE-OFF23(L)_6373ae707c16ca9
_symmetry_space_group_name_H-M   P2_1/c
_cell_length_a   10.82936299
_cell_length_b   11.67280197
_cell_length_c   7.10167883
_cell_angle_alpha   90.00000000
_cell_angle_beta   119.74011923
_cell_angle_gamma   90.00000000
_symmetry_Int_Tables_number   14
_chemical_formula_moiety   'C9 H8 O4'
_chemical_formula_sum   'H32 C36 O16'
_cell_volume   779.47293911
_cell_formula_units_Z   4
loop_
 _symmetry_equiv_pos_site_id
 _symmetry_equiv_pos_as_xyz
  1  'x, y, z'
  2  '-x, -y, -z'
  3  '-x, y+1/2, -z+1/2'
  4  'x, -y+1/2, z+1/2'
loop_
 _atom_site_type_symbol
 _atom_site_label
 _atom_site_symmetry_multiplicity
 _atom_site_fract_x
 _atom_site_fract_y
 _atom_site_fract_z
 _atom_site_occupancy
  H  H0  4  -0.14756796  0.28968379  -0.50153756  1
  H  H1  4  -0.04661764  0.09381423  -0.43932132  1
  H  H2  4  0.01312384  0.04476794  0.15497853  1
  H  H3  4  0.21389682  0.06638087  -0.24202892  1
  H  H4  4  0.30256555  0.62763062  0.21420798  1
  H  H5  4  0.33503816  0.74493765  0.87072629  1
  H  H6  4  0.34987485  0.61936872  0.49171624  1
  H  H7  4  0.46105940  -0.00383242  0.66212236  1
  C  C8  4  -0.03423708  0.27651336  -0.41020016  1
  C  C9  4  0.02282728  0.16719227  -0.37661715  1
  C  C10  4  0.05570819  0.36959919  -0.32443687  1
  C  C11  4  0.16868202  0.15095899  -0.26516420  1
  C  C12  4  0.20237471  0.14498147  0.29414650  1
  C  C13  4  0.25765858  0.24494790  -0.18260022  1
  C  C14  4  0.29058300  0.04168501  0.40314175  1
  C  C15  4  0.36612691  0.83369710  0.87297186  1
  C  C16  4  0.48019305  0.15838580  0.06077202  1
  O  O17  4  0.25128925  -0.05522142  0.34048997  1
  O  O18  4  0.40343420  0.23445195  -0.09438608  1
  O  O19  4  0.40977875  0.43397839  0.08367180  1
  O  O20  4  0.42830174  0.09153733  0.13237978  1
