###############################################################################################
#
# CIF file generated by modified CIFWriter class 
# in pymatgen (v2025.03.10) https://pymatgen.org/
#
###############################################################################################
data_MACE-OFF23(L)_71c2e26d52310bc
_symmetry_space_group_name_H-M   P2_12_12_1
_cell_length_a   15.42498533
_cell_length_b   8.59911685
_cell_length_c   6.10644777
_cell_angle_alpha   90.00000000
_cell_angle_beta   90.00000000
_cell_angle_gamma   90.00000000
_symmetry_Int_Tables_number   19
_chemical_formula_moiety   'C9 H8 O4'
_chemical_formula_sum   'H32 C36 O16'
_cell_volume   809.96687262
_cell_formula_units_Z   4
loop_
 _symmetry_equiv_pos_site_id
 _symmetry_equiv_pos_as_xyz
  1  'x, y, z'
  2  'x+1/2, -y+1/2, -z'
  3  '-x+1/2, -y, z+1/2'
  4  '-x, y+1/2, -z+1/2'
loop_
 _atom_site_type_symbol
 _atom_site_label
 _atom_site_symmetry_multiplicity
 _atom_site_fract_x
 _atom_site_fract_y
 _atom_site_fract_z
 _atom_site_occupancy
  H  H0  4  -0.16155534  0.51424028  0.23801407  1
  H  H1  4  -0.16011616  0.47549694  0.52687948  1
  H  H2  4  -0.13550082  0.66171032  0.42704239  1
  H  H3  4  0.04254476  0.86373387  0.50683408  1
  H  H4  4  0.05787856  0.19091546  0.58238360  1
  H  H5  4  0.17461456  0.68146584  0.14732657  1
  H  H6  4  0.21136309  0.11369014  0.62171848  1
  H  H7  4  0.21675946  0.40581581  0.14422578  1
  C  C8  4  -0.12975121  0.53799247  0.39282644  1
  C  C9  4  -0.03601750  0.49852148  0.37710452  1
  C  C10  4  0.08600447  0.43271465  0.58814950  1
  C  C11  4  0.10831084  0.27740229  0.59540130  1
  C  C12  4  0.12983411  0.71960802  0.59531957  1
  C  C13  4  0.14821301  0.54971943  0.60831900  1
  C  C14  4  0.19462822  0.23558518  0.61722587  1
  C  C15  4  0.23451920  0.50472681  0.63101233  1
  C  C16  4  0.24215358  0.65041093  0.13330967  1
  O  O17  4  -0.00225958  0.46618742  0.57525677  1
  O  O18  4  0.00656664  0.49426877  0.21108768  1
  O  O19  4  0.04904001  0.75276693  0.53479373  1
  O  O20  4  0.18360138  0.81938750  0.62916505  1
