###############################################################################################
#
# CIF file generated by modified CIFWriter class 
# in pymatgen (v2025.03.10) https://pymatgen.org/
#
###############################################################################################
data_MACE-OFF23(L)_738e821f4dc7a5d
_symmetry_space_group_name_H-M   P4_2
_cell_length_a   14.48835923
_cell_length_b   14.48835923
_cell_length_c   4.90592323
_cell_angle_alpha   90.00000000
_cell_angle_beta   90.00000000
_cell_angle_gamma   90.00000000
_symmetry_Int_Tables_number   77
_chemical_formula_moiety   'C9 H8 O4'
_chemical_formula_sum   'H32 C36 O16'
_cell_volume   1029.81487098
_cell_formula_units_Z   4
loop_
 _symmetry_equiv_pos_site_id
 _symmetry_equiv_pos_as_xyz
  1  'x, y, z'
  2  '-y, x, z+1/2'
  3  '-x, -y, z'
  4  'y, -x, z+1/2'
loop_
 _atom_site_type_symbol
 _atom_site_label
 _atom_site_symmetry_multiplicity
 _atom_site_fract_x
 _atom_site_fract_y
 _atom_site_fract_z
 _atom_site_occupancy
  H  H0  4  -0.19543996  0.58104494  0.32209446  1
  H  H1  4  -0.12234425  0.62322415  0.58598866  1
  H  H2  4  -0.09842797  0.51543082  0.43509730  1
  H  H3  4  -0.01076966  0.83934348  0.57220919  1
  H  H4  4  0.10609912  0.53160152  -0.11794929  1
  H  H5  4  0.14326819  0.20101018  0.41011984  1
  H  H6  4  0.22491576  0.58897917  -0.44092093  1
  H  H7  4  0.24563003  0.27058245  0.07424382  1
  C  C8  4  -0.12500447  0.58429780  0.39654302  1
  C  C9  4  -0.06608913  0.63172625  0.19063614  1
  C  C10  4  0.07510435  0.82399598  0.28217512  1
  C  C11  4  0.08836715  0.66166439  0.07332528  1
  C  C12  4  0.11417811  0.75438214  0.08850882  1
  C  C13  4  0.12855969  0.60262170  -0.11308786  1
  C  C14  4  0.18113665  0.78518288  -0.09399709  1
  C  C15  4  0.19487698  0.63501573  -0.29212563  1
  C  C16  4  0.22101724  0.72682482  -0.28347225  1
  O  O17  4  -0.09308134  0.67326067  -0.00569520  1
  O  O18  4  0.01420191  0.78967592  0.45815008  1
  O  O19  4  0.02471293  0.62132062  0.24961953  1
  O  O20  4  0.09567999  0.09741932  0.78409353  1
