###############################################################################################
#
# CIF file generated by modified CIFWriter class 
# in pymatgen (v2025.03.10) https://pymatgen.org/
#
###############################################################################################
data_MACE-OFF23(L)_75d8a015ac43f0b
_symmetry_space_group_name_H-M   Cc
_cell_length_a   5.93150416
_cell_length_b   18.02488891
_cell_length_c   7.71519366
_cell_angle_alpha   90.00000000
_cell_angle_beta   88.84822893
_cell_angle_gamma   90.00000000
_symmetry_Int_Tables_number   9
_chemical_formula_moiety   'C9 H8 O4'
_chemical_formula_sum   'H32 C36 O16'
_cell_volume   824.70098563
_cell_formula_units_Z   4
loop_
 _symmetry_equiv_pos_site_id
 _symmetry_equiv_pos_as_xyz
  1  'x, y, z'
  2  'x, -y, z+1/2'
  3  'x+1/2, y+1/2, z'
  4  'x+1/2, -y+1/2, z+1/2'
loop_
 _atom_site_type_symbol
 _atom_site_label
 _atom_site_symmetry_multiplicity
 _atom_site_fract_x
 _atom_site_fract_y
 _atom_site_fract_z
 _atom_site_occupancy
  H  H0  4  -0.21147007  0.40550181  0.74547898  1
  H  H1  4  -0.12310184  0.30443188  0.53817357  1
  H  H2  4  0.16327006  0.45214188  0.58515203  1
  H  H3  4  0.24352767  0.76150277  0.05565992  1
  H  H4  4  0.50622186  0.26961251  0.78826731  1
  H  H5  4  0.54015243  0.62721400  0.93229499  1
  H  H6  4  0.57963468  0.45278702  1.30422994  1
  H  H7  4  0.73905356  0.62651209  0.75439053  1
  C  C8  4  -0.05567024  0.37486920  0.75343876  1
  C  C9  4  -0.00464083  0.31858465  0.63705028  1
  C  C10  4  0.03965230  0.53574602  0.47987571  1
  C  C11  4  0.09821327  0.60372921  0.37840142  1
  C  C12  4  0.20054646  0.71802026  0.14676891  1
  C  C13  4  0.29812540  0.64379807  0.39183291  1
  C  C14  4  0.35017478  0.70014393  0.27598706  1
  C  C15  4  0.39107182  0.36826988  1.18649245  1
  C  C16  4  0.57558753  0.60749033  0.80186884  1
  O  O17  4  -0.15016440  0.48523975  1.00556936  1
  O  O18  4  0.20568466  0.65163337  0.73147108  1
  O  O19  4  0.22063457  0.50292973  1.03049813  1
  O  O20  4  0.45705653  0.62875547  0.51597627  1
