###############################################################################################
#
# CIF file generated by modified CIFWriter class 
# in pymatgen (v2025.03.10) https://pymatgen.org/
#
###############################################################################################
data_MACE-OFF23(L)_76738969b02a56d
_symmetry_space_group_name_H-M   P2_12_12
_cell_length_a   14.88118566
_cell_length_b   12.88110970
_cell_length_c   4.80883615
_cell_angle_alpha   90.00000000
_cell_angle_beta   90.00000000
_cell_angle_gamma   90.00000000
_symmetry_Int_Tables_number   18
_chemical_formula_moiety   'C9 H8 O4'
_chemical_formula_sum   'H32 C36 O16'
_cell_volume   921.78745618
_cell_formula_units_Z   4
loop_
 _symmetry_equiv_pos_site_id
 _symmetry_equiv_pos_as_xyz
  1  'x, y, z'
  2  '-x, -y, z'
  3  '-x+1/2, y+1/2, -z'
  4  'x+1/2, -y+1/2, -z'
loop_
 _atom_site_type_symbol
 _atom_site_label
 _atom_site_symmetry_multiplicity
 _atom_site_fract_x
 _atom_site_fract_y
 _atom_site_fract_z
 _atom_site_occupancy
  H  H0  4  -0.04205164  0.27595788  0.79830224  1
  H  H1  4  -0.02521434  0.41098729  0.82651542  1
  H  H2  4  0.02580311  0.32566126  1.07338233  1
  H  H3  4  0.02964116  0.91793212  0.67996252  1
  H  H4  4  0.05711220  0.56483080  0.25758773  1
  H  H5  4  0.05915570  0.79897347  0.29190005  1
  H  H6  4  0.15382402  1.02665755  0.86797463  1
  H  H7  4  0.21265565  0.78712022  0.09044267  1
  C  C8  4  0.00579754  0.33530419  0.85729919  1
  C  C9  4  0.08842160  0.32811618  0.68136117  1
  C  C10  4  0.09635024  0.91330501  0.59277988  1
  C  C11  4  0.11315955  0.84575506  0.37420465  1
  C  C12  4  0.16516813  0.97391297  0.69724986  1
  C  C13  4  0.17936936  0.53515153  0.28012392  1
  C  C14  4  0.19836362  0.83909746  0.26057351  1
  C  C15  4  0.23333020  0.39998530  0.63356756  1
  C  C16  4  0.24831374  0.46786408  0.41294037  1
  O  O17  4  0.09413458  0.51673762  0.36104685  1
  O  O18  4  0.09978765  0.27136707  0.48648294  1
  O  O19  4  0.15136656  0.39617699  0.77243998  1
  O  O20  4  0.19659473  0.60069635  0.11015569  1
