###############################################################################################
#
# CIF file generated by modified CIFWriter class 
# in pymatgen (v2025.03.10) https://pymatgen.org/
#
###############################################################################################
data_MACE-OFF23(L)_78219db9fbcf96a
_symmetry_space_group_name_H-M   P2/c
_cell_length_a   11.99789257
_cell_length_b   6.81491406
_cell_length_c   10.70843497
_cell_angle_alpha   90.00000000
_cell_angle_beta   80.53279727
_cell_angle_gamma   90.00000000
_symmetry_Int_Tables_number   13
_chemical_formula_moiety   'C9 H8 O4'
_chemical_formula_sum   'H32 C36 O16'
_cell_volume   863.64562417
_cell_formula_units_Z   4
loop_
 _symmetry_equiv_pos_site_id
 _symmetry_equiv_pos_as_xyz
  1  'x, y, z'
  2  '-x, -y, -z'
  3  '-x, y, -z+1/2'
  4  'x, -y, z+1/2'
loop_
 _atom_site_type_symbol
 _atom_site_label
 _atom_site_symmetry_multiplicity
 _atom_site_fract_x
 _atom_site_fract_y
 _atom_site_fract_z
 _atom_site_occupancy
  H  H0  4  -0.01645276  1.16001262  0.64459022  1
  H  H1  4  0.02780924  -0.17184751  -0.01851469  1
  H  H2  4  0.05816500  1.36998982  0.58028012  1
  H  H3  4  0.06818298  0.29397962  0.30730204  1
  H  H4  4  0.35401692  0.03225110  -0.16029387  1
  H  H5  4  0.41538166  0.34174334  0.46535961  1
  H  H6  4  0.42766498  0.39488784  0.21434922  1
  H  H7  4  0.45426750  0.82763958  1.15608089  1
  C  C8  4  0.05116603  1.21197117  0.57154455  1
  C  C9  4  0.16116973  -0.12135208  0.08960551  1
  C  C10  4  0.22174719  0.28068081  0.24352580  1
  C  C11  4  0.28787981  0.13427022  0.02386828  1
  C  C12  4  0.30683643  0.23955350  0.12985575  1
  C  C13  4  0.37206222  0.88539763  0.42003709  1
  C  C14  4  0.41471337  0.31349402  0.13171362  1
  C  C15  4  0.47857219  0.19114620  -0.07654502  1
  C  C16  4  0.49907272  0.28705145  0.46939436  1
  O  O17  4  0.11324451  0.73608866  0.72624113  1
  O  O18  4  0.18504403  0.04253896  0.01730774  1
  O  O19  4  0.22141218  -0.18115812  0.16012695  1
  O  O20  4  0.24439191  0.66948987  0.84433006  1
