###############################################################################################
#
# CIF file generated by modified CIFWriter class 
# in pymatgen (v2025.03.10) https://pymatgen.org/
#
###############################################################################################
data_MACE-OFF23(L)_785405fba567e1e
_symmetry_space_group_name_H-M   P2_1/c
_cell_length_a   5.73919663
_cell_length_b   13.64095564
_cell_length_c   10.60929900
_cell_angle_alpha   90.00000000
_cell_angle_beta   96.92235842
_cell_angle_gamma   90.00000000
_symmetry_Int_Tables_number   14
_chemical_formula_moiety   'C9 H8 O4'
_chemical_formula_sum   'H32 C36 O16'
_cell_volume   824.52752010
_cell_formula_units_Z   4
loop_
 _symmetry_equiv_pos_site_id
 _symmetry_equiv_pos_as_xyz
  1  'x, y, z'
  2  '-x, -y, -z'
  3  '-x, y+1/2, -z+1/2'
  4  'x, -y+1/2, z+1/2'
loop_
 _atom_site_type_symbol
 _atom_site_label
 _atom_site_symmetry_multiplicity
 _atom_site_fract_x
 _atom_site_fract_y
 _atom_site_fract_z
 _atom_site_occupancy
  H  H0  4  -0.22016679  0.68838772  0.87980984  1
  H  H1  4  -0.11360205  0.78060763  0.53753268  1
  H  H2  4  -0.06564567  0.90086272  0.47739634  1
  H  H3  4  0.12359592  0.48544298  0.75322230  1
  H  H4  4  0.12974456  0.44480443  0.52716497  1
  H  H5  4  0.19740709  0.85361993  0.66481689  1
  H  H6  4  0.36854288  0.83953589  1.22057358  1
  H  H7  4  0.46368710  0.43840402  0.91005596  1
  C  C8  4  -0.07751825  0.82318237  0.45542008  1
  C  C9  4  0.14622334  0.71058004  0.91142273  1
  C  C10  4  0.27278003  0.44757963  0.72340814  1
  C  C11  4  0.27599832  0.42573668  0.59622704  1
  C  C12  4  0.34641128  0.85239472  0.85710364  1
  C  C13  4  0.34683006  0.87464132  0.73050849  1
  C  C14  4  0.45235745  0.36215100  0.41346507  1
  C  C15  4  0.46221957  0.42213132  0.81035421  1
  C  C16  4  0.46592412  0.12155302  0.05317354  1
  O  O17  4  0.14495148  0.69221216  0.39188399  1
  O  O18  4  0.27210758  0.37059994  0.34258907  1
  O  O19  4  0.30935010  0.65862371  0.89264896  1
  O  O20  4  0.34404812  0.83963379  1.12787493  1
