###############################################################################################
#
# CIF file generated by modified CIFWriter class 
# in pymatgen (v2025.03.10) https://pymatgen.org/
#
###############################################################################################
data_MACE-OFF23(L)_78da7f38133d308
_symmetry_space_group_name_H-M   P4_3
_cell_length_a   10.53818350
_cell_length_b   10.53818350
_cell_length_c   8.46488160
_cell_angle_alpha   90.00000000
_cell_angle_beta   90.00000000
_cell_angle_gamma   90.00000000
_symmetry_Int_Tables_number   78
_chemical_formula_moiety   'C9 H8 O4'
_chemical_formula_sum   'H32 C36 O16'
_cell_volume   940.05313292
_cell_formula_units_Z   4
loop_
 _symmetry_equiv_pos_site_id
 _symmetry_equiv_pos_as_xyz
  1  'x, y, z'
  2  '-y, x, z+3/4'
  3  '-x, -y, z+1/2'
  4  'y, -x, z+1/4'
loop_
 _atom_site_type_symbol
 _atom_site_label
 _atom_site_symmetry_multiplicity
 _atom_site_fract_x
 _atom_site_fract_y
 _atom_site_fract_z
 _atom_site_occupancy
  H  H0  4  -0.09342663  0.29321853  0.87636071  1
  H  H1  4  -0.00973964  0.10843098  0.42757206  1
  H  H2  4  0.10087963  0.15662156  0.17887881  1
  H  H3  4  0.10242792  0.51567818  0.99191921  1
  H  H4  4  0.16374853  0.63052537  0.86027460  1
  H  H5  4  0.24223026  0.34407930  0.16353150  1
  H  H6  4  0.26543022  0.48440745  0.39864613  1
  H  H7  4  0.26649523  0.54659756  0.98929762  1
  C  C8  4  -0.02522915  0.23717595  0.68490037  1
  C  C9  4  0.05028691  0.19099374  0.41909957  1
  C  C10  4  0.05832447  0.27134003  0.54938268  1
  C  C11  4  0.11448495  0.21684652  0.28050822  1
  C  C12  4  0.13733067  0.37722378  0.53879868  1
  C  C13  4  0.18238782  0.53990951  0.91625306  1
  C  C14  4  0.19260805  0.32253919  0.27220969  1
  C  C15  4  0.19745448  0.43603113  0.79840048  1
  C  C16  4  0.20529645  0.40146609  0.40229637  1
  O  O17  4  -0.07663951  0.13529852  0.69485113  1
  O  O18  4  -0.04286311  0.32914638  0.79206123  1
  O  O19  4  0.14492144  0.46832602  0.65656498  1
  O  O20  4  0.24828444  0.33584770  0.82094455  1
