###############################################################################################
#
# CIF file generated by modified CIFWriter class 
# in pymatgen (v2025.03.10) https://pymatgen.org/
#
###############################################################################################
data_MACE-OFF23(L)_8646782c353540d
_symmetry_space_group_name_H-M   P4_3
_cell_length_a   6.51268623
_cell_length_b   6.51268623
_cell_length_c   19.77553247
_cell_angle_alpha   90.00000000
_cell_angle_beta   90.00000000
_cell_angle_gamma   90.00000000
_symmetry_Int_Tables_number   78
_chemical_formula_moiety   'C9 H8 O4'
_chemical_formula_sum   'H32 C36 O16'
_cell_volume   838.78082924
_cell_formula_units_Z   4
loop_
 _symmetry_equiv_pos_site_id
 _symmetry_equiv_pos_as_xyz
  1  'x, y, z'
  2  '-y, x, z+3/4'
  3  '-x, -y, z+1/2'
  4  'y, -x, z+1/4'
loop_
 _atom_site_type_symbol
 _atom_site_label
 _atom_site_symmetry_multiplicity
 _atom_site_fract_x
 _atom_site_fract_y
 _atom_site_fract_z
 _atom_site_occupancy
  H  H0  4  0.06951814  0.56082702  -0.03170861  1
  H  H1  4  0.10989395  0.74270043  0.40724556  1
  H  H2  4  0.13195242  -0.52364061  0.86770421  1
  H  H3  4  0.14769129  0.50364224  0.30912167  1
  H  H4  4  0.24181897  -0.52096999  0.78586027  1
  H  H5  4  0.26713576  1.36267247  0.46449014  1
  H  H6  4  0.37040605  0.60155968  0.21451866  1
  H  H7  4  0.39237612  -0.59131556  0.85517324  1
  C  C8  4  -0.27374867  0.66791697  0.10123906  1
  C  C9  4  -0.09593087  0.26956021  0.17816832  1
  C  C10  4  -0.02523710  0.42644685  0.06104438  1
  C  C11  4  0.02791708  0.30263465  0.11577526  1
  C  C12  4  0.10896408  0.45303394  0.00761566  1
  C  C13  4  0.20390868  0.78210922  0.36420245  1
  C  C14  4  0.22341002  0.65069758  0.30964554  1
  C  C15  4  0.26875522  -0.49039182  0.83903218  1
  C  C16  4  0.29412715  0.34931691  0.00633990  1
  O  O17  4  -0.21490337  0.52252402  0.05425514  1
  O  O18  4  -0.16126754  0.72537157  0.14503514  1
  O  O19  4  -0.01938864  0.22785641  0.23197458  1
  O  O20  4  0.28523433  1.29989376  0.42006149  1
