###############################################################################################
#
# CIF file generated by modified CIFWriter class 
# in pymatgen (v2025.03.10) https://pymatgen.org/
#
###############################################################################################
data_MACE-OFF23(L)_86f2e0bfadbf3e7
_symmetry_space_group_name_H-M   P4
_cell_length_a   16.31433398
_cell_length_b   16.31433398
_cell_length_c   4.15915914
_cell_angle_alpha   90.00000000
_cell_angle_beta   90.00000000
_cell_angle_gamma   90.00000000
_symmetry_Int_Tables_number   75
_chemical_formula_moiety   'C9 H8 O4'
_chemical_formula_sum   'H32 C36 O16'
_cell_volume   1106.99137014
_cell_formula_units_Z   4
loop_
 _symmetry_equiv_pos_site_id
 _symmetry_equiv_pos_as_xyz
  1  'x, y, z'
  2  '-y, x, z'
  3  '-x, -y, z'
  4  'y, -x, z'
loop_
 _atom_site_type_symbol
 _atom_site_label
 _atom_site_symmetry_multiplicity
 _atom_site_fract_x
 _atom_site_fract_y
 _atom_site_fract_z
 _atom_site_occupancy
  H  H0  4  -0.19122049  0.61699448  0.41021481  1
  H  H1  4  -0.12735013  0.74868823  0.55762497  1
  H  H2  4  -0.11956942  0.52313959  0.03712105  1
  H  H3  4  0.01354519  0.56663654  -0.20610739  1
  H  H4  4  0.10652050  0.87664172  0.42139947  1
  H  H5  4  0.21953298  0.72365249  -0.39803217  1
  H  H6  4  0.22517252  0.23777470  -0.03134021  1
  H  H7  4  0.28670103  0.67931805  -0.10626449  1
  C  C8  4  -0.13296339  0.63415017  0.30710962  1
  C  C9  4  -0.09747375  0.70816131  0.38982549  1
  C  C10  4  -0.09272565  0.58164652  0.09754783  1
  C  C11  4  -0.02137090  0.73112109  0.26733062  1
  C  C12  4  -0.01799962  0.60444190  -0.03299144  1
  C  C13  4  0.01332615  0.81005481  0.38699109  1
  C  C14  4  0.01695533  0.67828971  0.05221750  1
  C  C15  4  0.16050889  0.67207386  0.01007230  1
  C  C16  4  0.23135507  0.71487995  -0.14384085  1
  O  O17  4  -0.02778227  0.85888481  0.53661279  1
  O  O18  4  0.08871222  0.70216498  -0.10150702  1
  O  O19  4  0.09206239  0.82274602  0.32969451  1
  O  O20  4  0.16483377  0.61940217  0.21148953  1
