###############################################################################################
#
# CIF file generated by modified CIFWriter class 
# in pymatgen (v2025.03.10) https://pymatgen.org/
#
###############################################################################################
data_MACE-OFF23(L)_8712b8b076f3787
_symmetry_space_group_name_H-M   C2
_cell_length_a   12.31362019
_cell_length_b   9.18399081
_cell_length_c   6.95082904
_cell_angle_alpha   90.00000000
_cell_angle_beta   96.93863978
_cell_angle_gamma   90.00000000
_symmetry_Int_Tables_number   5
_chemical_formula_moiety   'C9 H8 O4'
_chemical_formula_sum   'H32 C36 O16'
_cell_volume   780.29956623
_cell_formula_units_Z   4
loop_
 _symmetry_equiv_pos_site_id
 _symmetry_equiv_pos_as_xyz
  1  'x, y, z'
  2  '-x, y, -z'
  3  'x+1/2, y+1/2, z'
  4  '-x+1/2, y+1/2, -z'
loop_
 _atom_site_type_symbol
 _atom_site_label
 _atom_site_symmetry_multiplicity
 _atom_site_fract_x
 _atom_site_fract_y
 _atom_site_fract_z
 _atom_site_occupancy
  H  H0  4  0.03301762  0.98193239  0.69981709  1
  H  H1  4  0.03554952  0.77135214  0.15999685  1
  H  H2  4  0.03618494  0.58022988  0.20174596  1
  H  H3  4  0.08419813  0.24278288  0.61162106  1
  H  H4  4  0.09261977  1.05096663  1.04086526  1
  H  H5  4  0.10090919  0.34188181  -0.00479168  1
  H  H6  4  0.15525579  0.67043400  0.14240266  1
  H  H7  4  0.22470332  0.47310223  -0.19754764  1
  C  C8  4  0.08370120  0.67967690  0.21955816  1
  C  C9  4  0.11342092  0.95340741  0.76886786  1
  C  C10  4  0.12083558  0.70148305  0.42934511  1
  C  C11  4  0.12551869  0.27900764  0.36375232  1
  C  C12  4  0.14705914  0.99013428  0.96007691  1
  C  C13  4  0.18164105  0.37283032  0.06021094  1
  C  C14  4  0.18226106  0.87658855  0.66317829  1
  C  C15  4  0.21223120  0.33947830  0.25511777  1
  C  C16  4  0.24917068  0.94714094  1.04788438  1
  O  O17  4  0.03341319  0.25396762  0.28261607  1
  O  O18  4  0.13155143  0.60857573  0.55133755  1
  O  O19  4  0.14165597  0.84507011  0.47282840  1
  O  O20  4  0.15184814  0.26074694  0.55080132  1
