###############################################################################################
#
# CIF file generated by modified CIFWriter class 
# in pymatgen (v2025.03.10) https://pymatgen.org/
#
###############################################################################################
data_MACE-OFF23(L)_8723131ff76e2cd
_symmetry_space_group_name_H-M   P4
_cell_length_a   12.31090922
_cell_length_b   12.31090922
_cell_length_c   7.32731116
_cell_angle_alpha   90.00000000
_cell_angle_beta   90.00000000
_cell_angle_gamma   90.00000000
_symmetry_Int_Tables_number   75
_chemical_formula_moiety   'C9 H8 O4'
_chemical_formula_sum   'H32 C36 O16'
_cell_volume   1110.51618601
_cell_formula_units_Z   4
loop_
 _symmetry_equiv_pos_site_id
 _symmetry_equiv_pos_as_xyz
  1  'x, y, z'
  2  '-y, x, z'
  3  '-x, -y, z'
  4  'y, -x, z'
loop_
 _atom_site_type_symbol
 _atom_site_label
 _atom_site_symmetry_multiplicity
 _atom_site_fract_x
 _atom_site_fract_y
 _atom_site_fract_z
 _atom_site_occupancy
  H  H0  4  -0.07931307  0.31661171  0.65519539  1
  H  H1  4  -0.00165230  0.40666066  0.38492777  1
  H  H2  4  0.04226912  0.22209538  0.87448054  1
  H  H3  4  0.20075330  0.46944307  -0.07551438  1
  H  H4  4  0.22218877  0.76014929  0.82046347  1
  H  H5  4  0.29183962  0.53437396  0.07307906  1
  H  H6  4  0.33557020  0.42319632  -0.06734321  1
  H  H7  4  0.36950937  0.52414059  0.44453651  1
  C  C8  4  0.00723683  0.31420741  0.63294357  1
  C  C9  4  0.05043059  0.36609634  0.48176393  1
  C  C10  4  0.07515160  0.26168569  0.75517946  1
  C  C11  4  0.16136728  0.36748373  0.45445668  1
  C  C12  4  0.18596040  0.26118398  0.72474231  1
  C  C13  4  0.23122491  0.31460469  0.57513297  1
  C  C14  4  0.23929937  0.37668374  0.15941309  1
  C  C15  4  0.26996331  0.45645830  0.01425743  1
  C  C16  4  0.31053634  0.64857925  0.56157326  1
  O  O17  4  0.19831451  0.42927897  0.30792995  1
  O  O18  4  0.24675509  0.27975867  0.15077549  1
  O  O19  4  0.25112532  0.59244458  0.65174883  1
  O  O20  4  0.38139695  0.60304183  0.44270704  1
