###############################################################################################
#
# CIF file generated by modified CIFWriter class 
# in pymatgen (v2025.03.10) https://pymatgen.org/
#
###############################################################################################
data_MACE-OFF23(L)_877b4b8c443ba5c
_symmetry_space_group_name_H-M   P2_1/c
_cell_length_a   10.95880938
_cell_length_b   7.21103954
_cell_length_c   10.56598897
_cell_angle_alpha   90.00000000
_cell_angle_beta   93.17522503
_cell_angle_gamma   90.00000000
_symmetry_Int_Tables_number   14
_chemical_formula_moiety   'C9 H8 O4'
_chemical_formula_sum   'H32 C36 O16'
_cell_volume   833.68918028
_cell_formula_units_Z   4
loop_
 _symmetry_equiv_pos_site_id
 _symmetry_equiv_pos_as_xyz
  1  'x, y, z'
  2  '-x, -y, -z'
  3  '-x, y+1/2, -z+1/2'
  4  'x, -y+1/2, z+1/2'
loop_
 _atom_site_type_symbol
 _atom_site_label
 _atom_site_symmetry_multiplicity
 _atom_site_fract_x
 _atom_site_fract_y
 _atom_site_fract_z
 _atom_site_occupancy
  H  H0  4  0.02388853  0.92403917  0.09633786  1
  H  H1  4  0.03898900  0.58343435  0.10676826  1
  H  H2  4  0.15506798  0.38146525  0.73946637  1
  H  H3  4  0.18761080  1.06283906  0.76072214  1
  H  H4  4  0.36147641  1.30000124  0.63075650  1
  H  H5  4  0.38529500  1.06114749  0.65898846  1
  H  H6  4  0.44394469  0.60649196  0.57309956  1
  H  H7  4  0.46803165  0.33045079  1.04328185  1
  C  C8  4  0.08800235  0.85948635  0.16397632  1
  C  C9  4  0.09655492  0.66789769  0.16943069  1
  C  C10  4  0.16087939  0.96961341  0.24474826  1
  C  C11  4  0.17955512  0.58619109  0.25565909  1
  C  C12  4  0.24168576  0.88654597  0.33239789  1
  C  C13  4  0.25299030  0.69407759  0.33825045  1
  C  C14  4  0.28132243  0.38082558  0.99075113  1
  C  C15  4  0.34953380  0.59993352  0.41947751  1
  C  C16  4  0.38090981  0.33157108  1.08654225  1
  O  O17  4  0.17857722  1.17717583  0.48593599  1
  O  O18  4  0.32286269  0.51008882  0.90909230  1
  O  O19  4  0.36809796  0.83684356  1.03592204  1
  O  O20  4  0.40889310  0.47196178  0.37854982  1
