###############################################################################################
#
# CIF file generated by modified CIFWriter class 
# in pymatgen (v2025.03.10) https://pymatgen.org/
#
###############################################################################################
data_MACE-OFF23(L)_8788731becb04e3
_symmetry_space_group_name_H-M   Pna2_1
_cell_length_a   13.28166835
_cell_length_b   8.37209828
_cell_length_c   6.86434735
_cell_angle_alpha   90.00000000
_cell_angle_beta   90.00000000
_cell_angle_gamma   90.00000000
_symmetry_Int_Tables_number   33
_chemical_formula_moiety   'C9 H8 O4'
_chemical_formula_sum   'H32 C36 O16'
_cell_volume   763.28407446
_cell_formula_units_Z   4
loop_
 _symmetry_equiv_pos_site_id
 _symmetry_equiv_pos_as_xyz
  1  'x, y, z'
  2  '-x, -y, z+1/2'
  3  '-x+1/2, y+1/2, z+1/2'
  4  'x+1/2, -y+1/2, z'
loop_
 _atom_site_type_symbol
 _atom_site_label
 _atom_site_symmetry_multiplicity
 _atom_site_fract_x
 _atom_site_fract_y
 _atom_site_fract_z
 _atom_site_occupancy
  H  H0  4  -0.07822534  0.26838564  0.23452499  1
  H  H1  4  -0.03742231  0.08204882  -0.03169204  1
  H  H2  4  0.05293102  0.41954584  0.79178164  1
  H  H3  4  0.12044592  0.74885619  1.23119237  1
  H  H4  4  0.13349813  -0.03649221  -0.05028228  1
  H  H5  4  0.15535941  0.58668657  1.38491352  1
  H  H6  4  0.22658168  0.76514463  1.38136418  1
  H  H7  4  0.24010138  0.52803247  0.70091301  1
  C  C8  4  -0.00408134  0.21632309  0.22470419  1
  C  C9  4  0.01870115  0.11111686  0.07619579  1
  C  C10  4  0.03503855  0.36381651  0.52425921  1
  C  C11  4  0.06678710  0.25298858  0.36777153  1
  C  C12  4  0.11396228  0.04373670  0.06682819  1
  C  C13  4  0.16179037  0.18304310  0.35647882  1
  C  C14  4  0.18270369  0.68252498  1.29330104  1
  C  C15  4  0.18570790  0.08020681  0.20658729  1
  C  C16  4  0.24789390  0.61424593  1.13717136  1
  O  O17  4  -0.02926195  0.46608650  0.49985091  1
  O  O18  4  0.07870729  0.34225733  0.69527184  1
  O  O19  4  0.21574321  -0.01697436  0.63579986  1
  O  O20  4  0.23538991  0.22273282  0.49264210  1
