###############################################################################################
#
# CIF file generated by modified CIFWriter class 
# in pymatgen (v2025.03.10) https://pymatgen.org/
#
###############################################################################################
data_MACE-OFF23(L)_87b248d6ea3b8cd
_symmetry_space_group_name_H-M   P2_1/c
_cell_length_a   11.04814586
_cell_length_b   6.84381505
_cell_length_c   10.53061229
_cell_angle_alpha   90.00000000
_cell_angle_beta   89.94822675
_cell_angle_gamma   90.00000000
_symmetry_Int_Tables_number   14
_chemical_formula_moiety   'C9 H8 O4'
_chemical_formula_sum   'H32 C36 O16'
_cell_volume   796.23471760
_cell_formula_units_Z   4
loop_
 _symmetry_equiv_pos_site_id
 _symmetry_equiv_pos_as_xyz
  1  'x, y, z'
  2  '-x, -y, -z'
  3  '-x, y+1/2, -z+1/2'
  4  'x, -y+1/2, z+1/2'
loop_
 _atom_site_type_symbol
 _atom_site_label
 _atom_site_symmetry_multiplicity
 _atom_site_fract_x
 _atom_site_fract_y
 _atom_site_fract_z
 _atom_site_occupancy
  H  H0  4  0.01553123  0.40350739  -0.27562053  1
  H  H1  4  0.02156212  0.47823070  -0.11445412  1
  H  H2  4  0.07387206  -0.14409898  -0.02195293  1
  H  H3  4  0.13925671  -0.04268372  0.27955262  1
  H  H4  4  0.18106570  -0.41132209  0.09169494  1
  H  H5  4  0.37790891  0.84557841  0.69328795  1
  H  H6  4  0.42146712  0.49549695  -0.07596225  1
  H  H7  4  0.47583066  -0.02457472  0.16465297  1
  C  C8  4  0.07450012  0.42928581  -0.19508554  1
  C  C9  4  0.14320923  0.25306343  0.33455415  1
  C  C10  4  0.16261036  -0.12081200  0.01815664  1
  C  C11  4  0.21589677  0.43897502  0.50802379  1
  C  C12  4  0.22201599  0.76894699  0.58277268  1
  C  C13  4  0.33096936  0.09579083  0.05647642  1
  C  C14  4  0.33333197  0.73307100  0.63907629  1
  C  C15  4  0.38780747  -0.05249801  0.12432405  1
  C  C16  4  0.39916219  0.21951982  0.53656951  1
  O  O17  4  0.14695053  0.21523619  -0.03836639  1
  O  O18  4  0.18950659  0.13931083  -0.24105191  1
  O  O19  4  0.36632576  0.38146239  -0.06384810  1
  O  O20  4  0.48312430  0.17297321  0.60553205  1
