###############################################################################################
#
# CIF file generated by modified CIFWriter class 
# in pymatgen (v2025.03.10) https://pymatgen.org/
#
###############################################################################################
data_MACE-OFF23(L)_8879896470a87b4
_symmetry_space_group_name_H-M   P2_1/c
_cell_length_a   6.16835721
_cell_length_b   8.52206243
_cell_length_c   15.74326062
_cell_angle_alpha   90.00000000
_cell_angle_beta   99.36770328
_cell_angle_gamma   90.00000000
_symmetry_Int_Tables_number   14
_chemical_formula_moiety   'C9 H8 O4'
_chemical_formula_sum   'H32 C36 O16'
_cell_volume   816.54142954
_cell_formula_units_Z   4
loop_
 _symmetry_equiv_pos_site_id
 _symmetry_equiv_pos_as_xyz
  1  'x, y, z'
  2  '-x, -y, -z'
  3  '-x, y+1/2, -z+1/2'
  4  'x, -y+1/2, z+1/2'
loop_
 _atom_site_type_symbol
 _atom_site_label
 _atom_site_symmetry_multiplicity
 _atom_site_fract_x
 _atom_site_fract_y
 _atom_site_fract_z
 _atom_site_occupancy
  H  H0  4  0.14928304  0.01902711  0.09429753  1
  H  H1  4  0.18925492  0.31055206  0.31170647  1
  H  H2  4  0.22141842  0.38594427  0.46478001  1
  H  H3  4  0.25899124  0.17754998  0.57753366  1
  H  H4  4  0.26134294  -0.10000492  0.53452389  1
  H  H5  4  0.26153475  -0.36776831  0.29133370  1
  H  H6  4  0.27122118  -0.16541905  0.11724860  1
  H  H7  4  0.43497990  -0.01063035  0.08919339  1
  C  C8  4  0.20479060  0.22259107  0.36162838  1
  C  C9  4  0.20855175  0.06646136  0.33875924  1
  C  C10  4  0.22294987  0.26329953  0.44772215  1
  C  C11  4  0.22572628  -0.05271253  0.40033715  1
  C  C12  4  0.23124845  -0.22371151  0.38113189  1
  C  C13  4  0.24384895  0.14726780  0.51026210  1
  C  C14  4  0.24479890  0.50874691  0.98647163  1
  C  C15  4  0.29992544  -0.03962359  0.12269893  1
  C  C16  4  0.35928698  0.50033868  0.71572167  1
  O  O17  4  0.18052104  0.03464304  0.25080226  1
  O  O18  4  0.23214948  -0.25654948  0.29853153  1
  O  O19  4  0.23734959  -0.32490352  0.43550840  1
  O  O20  4  0.45710457  0.50142042  0.24324272  1
