###############################################################################################
#
# CIF file generated by modified CIFWriter class 
# in pymatgen (v2025.03.10) https://pymatgen.org/
#
###############################################################################################
data_MACE-OFF23(L)_8a87a3cbbcce979
_symmetry_space_group_name_H-M   P2_1/c
_cell_length_a   9.35347648
_cell_length_b   7.22967136
_cell_length_c   11.99526321
_cell_angle_alpha   90.00000000
_cell_angle_beta   86.00140763
_cell_angle_gamma   90.00000000
_symmetry_Int_Tables_number   14
_chemical_formula_moiety   'C9 H8 O4'
_chemical_formula_sum   'H32 C36 O16'
_cell_volume   809.17588694
_cell_formula_units_Z   4
loop_
 _symmetry_equiv_pos_site_id
 _symmetry_equiv_pos_as_xyz
  1  'x, y, z'
  2  '-x, -y, -z'
  3  '-x, y+1/2, -z+1/2'
  4  'x, -y+1/2, z+1/2'
loop_
 _atom_site_type_symbol
 _atom_site_label
 _atom_site_symmetry_multiplicity
 _atom_site_fract_x
 _atom_site_fract_y
 _atom_site_fract_z
 _atom_site_occupancy
  H  H0  4  -0.18221340  0.52829704  0.65500790  1
  H  H1  4  -0.14128160  0.63859717  0.11064626  1
  H  H2  4  0.02454964  1.18167564  0.15859491  1
  H  H3  4  0.10692050  0.97894469  0.57790777  1
  H  H4  4  0.36142177  0.29107599  0.84006019  1
  H  H5  4  0.41417361  0.52323531  0.85558949  1
  H  H6  4  0.41490168  0.13089449  0.47114484  1
  H  H7  4  0.49966950  1.12372683  0.15176879  1
  C  C8  4  -0.07524194  0.58112548  0.63685387  1
  C  C9  4  -0.05230998  0.73329598  0.11261691  1
  C  C10  4  0.04073276  1.03700541  0.13963716  1
  C  C11  4  0.08574678  0.83409742  0.59315234  1
  C  C12  4  0.18097196  0.52697584  0.61987862  1
  C  C13  4  0.20044557  0.71503125  0.59768873  1
  C  C14  4  0.29900161  0.38987285  0.62894278  1
  C  C15  4  0.41748673  0.82610292  0.65761526  1
  C  C16  4  0.43394095  0.38180348  0.88144329  1
  O  O17  4  0.27685988  0.22608445  0.64406056  1
  O  O18  4  0.33603277  0.79038924  0.57287536  1
  O  O19  4  0.37313967  0.81203625  0.75477040  1
  O  O20  4  0.42965454  0.46164966  0.62163066  1
