###############################################################################################
#
# CIF file generated by modified CIFWriter class 
# in pymatgen (v2025.03.10) https://pymatgen.org/
#
###############################################################################################
data_MACE-OFF23(L)_8b98bbc5b1238c4
_symmetry_space_group_name_H-M   P4_1
_cell_length_a   11.98600885
_cell_length_b   11.98600885
_cell_length_c   6.75859618
_cell_angle_alpha   90.00000000
_cell_angle_beta   90.00000000
_cell_angle_gamma   90.00000000
_symmetry_Int_Tables_number   76
_chemical_formula_moiety   'C9 H8 O4'
_chemical_formula_sum   'H32 C36 O16'
_cell_volume   970.96972062
_cell_formula_units_Z   4
loop_
 _symmetry_equiv_pos_site_id
 _symmetry_equiv_pos_as_xyz
  1  'x, y, z'
  2  '-y, x, z+1/4'
  3  '-x, -y, z+1/2'
  4  'y, -x, z+3/4'
loop_
 _atom_site_type_symbol
 _atom_site_label
 _atom_site_symmetry_multiplicity
 _atom_site_fract_x
 _atom_site_fract_y
 _atom_site_fract_z
 _atom_site_occupancy
  H  H0  4  -0.05142218  0.68003731  0.01072051  1
  H  H1  4  -0.00837767  0.49618707  -0.13033742  1
  H  H2  4  0.07949471  0.76763247  0.25012365  1
  H  H3  4  0.10948862  0.81328279  0.76173645  1
  H  H4  4  0.17200388  0.18712967  -0.21368061  1
  H  H5  4  0.19045931  0.70160381  0.67025054  1
  H  H6  4  0.25114048  0.66505132  0.34893413  1
  H  H7  4  0.40403390  0.54508778  0.90548306  1
  C  C8  4  0.02428566  0.63826069  0.05466505  1
  C  C9  4  0.04811682  0.53475076  -0.02687733  1
  C  C10  4  0.09698235  0.68619618  0.18941705  1
  C  C11  4  0.14423321  0.47929840  0.02834441  1
  C  C12  4  0.16944520  0.28433963  0.05057400  1
  C  C13  4  0.18561606  0.79200886  0.68384778  1
  C  C14  4  0.19245099  0.62950954  0.24563923  1
  C  C15  4  0.21686349  0.52525783  0.16651776  1
  C  C16  4  0.31957400  0.46936517  0.24132433  1
  O  O17  4  0.14452560  0.28371527  0.22233314  1
  O  O18  4  0.16711736  0.37756879  -0.06327377  1
  O  O19  4  0.34537746  0.46724874  0.41252466  1
  O  O20  4  0.38334399  0.42456521  0.09587273  1
