###############################################################################################
#
# CIF file generated by modified CIFWriter class 
# in pymatgen (v2025.03.10) https://pymatgen.org/
#
###############################################################################################
data_MACE-OFF23(L)_8c1d8fae0a9b6a2
_symmetry_space_group_name_H-M   P2_1/c
_cell_length_a   15.67366548
_cell_length_b   7.99764044
_cell_length_c   6.97577038
_cell_angle_alpha   90.00000000
_cell_angle_beta   64.14781344
_cell_angle_gamma   90.00000000
_symmetry_Int_Tables_number   14
_chemical_formula_moiety   'C9 H8 O4'
_chemical_formula_sum   'H32 C36 O16'
_cell_volume   786.91800686
_cell_formula_units_Z   4
loop_
 _symmetry_equiv_pos_site_id
 _symmetry_equiv_pos_as_xyz
  1  'x, y, z'
  2  '-x, -y, -z'
  3  '-x, y+1/2, -z+1/2'
  4  'x, -y+1/2, z+1/2'
loop_
 _atom_site_type_symbol
 _atom_site_label
 _atom_site_symmetry_multiplicity
 _atom_site_fract_x
 _atom_site_fract_y
 _atom_site_fract_z
 _atom_site_occupancy
  H  H0  4  -0.03935008  0.52276531  0.74849334  1
  H  H1  4  -0.02334395  0.30881920  0.68862409  1
  H  H2  4  -0.02092337  0.38049212  0.92380144  1
  H  H3  4  0.18349395  -0.27857862  0.34912047  1
  H  H4  4  0.24023682  0.43053264  0.09160043  1
  H  H5  4  0.41230571  0.02794322  0.41489450  1
  H  H6  4  0.45125314  0.55726148  0.41691889  1
  H  H7  4  0.47973881  0.72547289  0.68369029  1
  C  C8  4  -0.00165378  0.41212309  0.75923190  1
  C  C9  4  0.10269702  0.06382302  0.13630092  1
  C  C10  4  0.25009194  0.16581128  0.10719745  1
  C  C11  4  0.27802860  -0.14834171  0.13478502  1
  C  C12  4  0.28723507  0.17547116  0.55289544  1
  C  C13  4  0.30865414  0.02615046  0.06367407  1
  C  C14  4  0.38454186  0.34658730  -0.04887504  1
  C  C15  4  0.40602356  0.44899859  0.45294328  1
  C  C16  4  0.44433892  0.29068302  0.39767831  1
  O  O17  4  0.14036972  -0.02514772  -0.01765777  1
  O  O18  4  0.15103140  0.15809436  0.21496771  1
  O  O19  4  0.19447447  -0.16102168  0.30677249  1
  O  O20  4  0.32617239  -0.26905318  0.05105420  1
