###############################################################################################
#
# CIF file generated by modified CIFWriter class 
# in pymatgen (v2025.03.10) https://pymatgen.org/
#
###############################################################################################
data_MACE-OFF23(L)_8d896fcc97d1fb1
_symmetry_space_group_name_H-M   Pna2_1
_cell_length_a   13.07793587
_cell_length_b   11.28734809
_cell_length_c   5.24434532
_cell_angle_alpha   90.00000000
_cell_angle_beta   90.00000000
_cell_angle_gamma   90.00000000
_symmetry_Int_Tables_number   33
_chemical_formula_moiety   'C9 H8 O4'
_chemical_formula_sum   'H32 C36 O16'
_cell_volume   774.14515915
_cell_formula_units_Z   4
loop_
 _symmetry_equiv_pos_site_id
 _symmetry_equiv_pos_as_xyz
  1  'x, y, z'
  2  '-x, -y, z+1/2'
  3  '-x+1/2, y+1/2, z+1/2'
  4  'x+1/2, -y+1/2, z'
loop_
 _atom_site_type_symbol
 _atom_site_label
 _atom_site_symmetry_multiplicity
 _atom_site_fract_x
 _atom_site_fract_y
 _atom_site_fract_z
 _atom_site_occupancy
  H  H0  4  0.04033203  0.05206792  0.30328547  1
  H  H1  4  0.04302946  0.80280352  0.45858220  1
  H  H2  4  0.05542413  0.48879941  0.09738386  1
  H  H3  4  0.07425102  0.35137542  -0.05502843  1
  H  H4  4  0.11726516  0.62485268  0.66523745  1
  H  H5  4  0.12491719  0.88605442  0.07442837  1
  H  H6  4  0.17997447  0.44381540  -0.00343027  1
  H  H7  4  0.22504003  0.03767292  0.98968482  1
  C  C8  4  0.10776490  0.41475283  0.07686265  1
  C  C9  4  0.11105288  0.76179771  0.38229591  1
  C  C10  4  0.11894496  0.09506585  0.59322734  1
  C  C11  4  0.12393921  0.35640988  0.32901769  1
  C  C12  4  0.15263490  0.66258021  0.49774038  1
  C  C13  4  0.15707179  0.80966579  0.16831809  1
  C  C14  4  0.21160427  0.15960405  0.68239961  1
  C  C15  4  0.24089959  0.61361594  0.39931353  1
  C  C16  4  0.24486009  0.75920538  0.06850653  1
  O  O17  4  0.06193436  0.34798470  0.49704287  1
  O  O18  4  0.06653917  0.03741780  0.73896854  1
  O  O19  4  0.10093130  0.09997156  0.34492600  1
  O  O20  4  0.21995730  0.31195488  0.34559978  1
