###############################################################################################
#
# CIF file generated by modified CIFWriter class 
# in pymatgen (v2025.03.10) https://pymatgen.org/
#
###############################################################################################
data_MACE-OFF23(L)_91197f3978e785c
_symmetry_space_group_name_H-M   P2_1/c
_cell_length_a   4.82227112
_cell_length_b   16.30575008
_cell_length_c   11.24942239
_cell_angle_alpha   90.00000000
_cell_angle_beta   107.14723919
_cell_angle_gamma   90.00000000
_symmetry_Int_Tables_number   14
_chemical_formula_moiety   'C9 H8 O4'
_chemical_formula_sum   'H32 C36 O16'
_cell_volume   845.23245501
_cell_formula_units_Z   4
loop_
 _symmetry_equiv_pos_site_id
 _symmetry_equiv_pos_as_xyz
  1  'x, y, z'
  2  '-x, -y, -z'
  3  '-x, y+1/2, -z+1/2'
  4  'x, -y+1/2, z+1/2'
loop_
 _atom_site_type_symbol
 _atom_site_label
 _atom_site_symmetry_multiplicity
 _atom_site_fract_x
 _atom_site_fract_y
 _atom_site_fract_z
 _atom_site_occupancy
  H  H0  4  -0.32657069  0.21965237  0.64817725  1
  H  H1  4  -0.29719297  -0.04030006  0.55459216  1
  H  H2  4  -0.02765508  0.17801802  0.29206425  1
  H  H3  4  0.22202882  1.08377786  0.11758508  1
  H  H4  4  0.35390467  0.85814032  0.08868612  1
  H  H5  4  0.45990383  0.28328169  0.92567432  1
  H  H6  4  0.46967072  0.38202403  0.75727447  1
  H  H7  4  0.49815930  -0.15281506  0.88873100  1
  C  C8  4  -0.21157463  0.06800304  0.60912267  1
  C  C9  4  -0.11144136  0.20412075  0.70546294  1
  C  C10  4  -0.00999650  0.37512472  0.19688728  1
  C  C11  4  0.05463270  0.23906086  0.28702509  1
  C  C12  4  0.26583709  0.10456354  0.77263171  1
  C  C13  4  0.32840181  0.26099708  0.36222765  1
  C  C14  4  0.36561361  0.53022966  0.34456241  1
  C  C15  4  0.43385484  0.33908433  0.35462844  1
  C  C16  4  0.44674442  1.10162414  0.16127746  1
  O  O17  4  -0.43755761  0.09379571  0.53689366  1
  O  O18  4  -0.13753714  -0.00940537  0.61468536  1
  O  O19  4  0.21100907  -0.02283871  0.91026271  1
  O  O20  4  0.39373752  0.47041783  0.26456241  1
