###############################################################################################
#
# CIF file generated by modified CIFWriter class 
# in pymatgen (v2025.03.10) https://pymatgen.org/
#
###############################################################################################
data_MACE-OFF23(L)_9266fbec490976b
_symmetry_space_group_name_H-M   Pna2_1
_cell_length_a   14.00248664
_cell_length_b   15.45737922
_cell_length_c   3.96921786
_cell_angle_alpha   90.00000000
_cell_angle_beta   90.00000000
_cell_angle_gamma   90.00000000
_symmetry_Int_Tables_number   33
_chemical_formula_moiety   'C9 H8 O4'
_chemical_formula_sum   'H32 C36 O16'
_cell_volume   859.10444408
_cell_formula_units_Z   4
loop_
 _symmetry_equiv_pos_site_id
 _symmetry_equiv_pos_as_xyz
  1  'x, y, z'
  2  '-x, -y, z+1/2'
  3  '-x+1/2, y+1/2, z+1/2'
  4  'x+1/2, -y+1/2, z'
loop_
 _atom_site_type_symbol
 _atom_site_label
 _atom_site_symmetry_multiplicity
 _atom_site_fract_x
 _atom_site_fract_y
 _atom_site_fract_z
 _atom_site_occupancy
  H  H0  4  0.03851474  -0.16491500  0.37215051  1
  H  H1  4  0.05263077  0.10761474  0.25473622  1
  H  H2  4  0.06175059  0.46885638  0.46611271  1
  H  H3  4  0.07538896  0.26639059  0.30981325  1
  H  H4  4  0.09307342  -0.13528943  -0.01376768  1
  H  H5  4  0.12248576  0.72702006  0.80209292  1
  H  H6  4  0.16378936  -0.17661946  0.31517443  1
  H  H7  4  0.23797234  0.32669940  0.34087263  1
  C  C8  4  0.10175903  -0.13716723  0.25755150  1
  C  C9  4  0.11673104  -0.04729405  0.38313010  1
  C  C10  4  0.11739290  0.56178221  0.70963181  1
  C  C11  4  0.12302400  0.13546983  0.26243070  1
  C  C12  4  0.13644668  0.22361010  0.29437928  1
  C  C13  4  0.19454905  0.70254825  0.79051527  1
  C  C14  4  0.20117189  0.08036979  0.24458954  1
  C  C15  4  0.20649773  0.61359106  0.75096522  1
  C  C16  4  0.22799678  0.25781961  0.31128394  1
  O  O17  4  0.04268581  0.58354312  0.84196596  1
  O  O18  4  0.07458667  -0.01390379  0.61102518  1
  O  O19  4  0.12513529  0.49475058  0.50556201  1
  O  O20  4  0.18836188  -0.00753603  0.20948425  1
