###############################################################################################
#
# CIF file generated by modified CIFWriter class 
# in pymatgen (v2025.03.10) https://pymatgen.org/
#
###############################################################################################
data_MACE-OFF23(L)_949bd12e31a260f
_symmetry_space_group_name_H-M   P4
_cell_length_a   11.46796540
_cell_length_b   11.46796540
_cell_length_c   6.83746400
_cell_angle_alpha   90.00000000
_cell_angle_beta   90.00000000
_cell_angle_gamma   90.00000000
_symmetry_Int_Tables_number   75
_chemical_formula_moiety   'C9 H8 O4'
_chemical_formula_sum   'H32 C36 O16'
_cell_volume   899.22381491
_cell_formula_units_Z   4
loop_
 _symmetry_equiv_pos_site_id
 _symmetry_equiv_pos_as_xyz
  1  'x, y, z'
  2  '-y, x, z'
  3  '-x, -y, z'
  4  'y, -x, z'
loop_
 _atom_site_type_symbol
 _atom_site_label
 _atom_site_symmetry_multiplicity
 _atom_site_fract_x
 _atom_site_fract_y
 _atom_site_fract_z
 _atom_site_occupancy
  H  H0  4  -0.19556887  0.62695077  0.89597829  1
  H  H1  4  -0.10902187  0.51257500  0.79617535  1
  H  H2  4  -0.08071269  0.79201650  0.35130738  1
  H  H3  4  -0.05244493  0.60301860  0.98111737  1
  H  H4  4  -0.00410636  0.84494390  0.02914323  1
  H  H5  4  0.18157257  0.76440020  -0.08947769  1
  H  H6  4  0.28793502  0.40347080  0.52973269  1
  H  H7  4  0.29488378  0.63060164  0.12398593  1
  C  C8  4  -0.10846065  0.60068200  0.85292127  1
  C  C9  4  -0.06356415  0.68444417  0.70230176  1
  C  C10  4  0.00127809  0.75702099  0.30302872  1
  C  C11  4  0.04566031  0.78682358  0.12122307  1
  C  C12  4  0.06418135  0.68129937  0.42072061  1
  C  C13  4  0.14989835  0.74101794  0.05377580  1
  C  C14  4  0.17096249  0.63756620  0.35753775  1
  C  C15  4  0.21280920  0.66646973  0.17323858  1
  C  C16  4  0.24378367  0.56173426  0.48694395  1
  O  O17  4  -0.09775608  0.78204961  0.67762315  1
  O  O18  4  0.02456335  0.63542926  0.59597322  1
  O  O19  4  0.23216601  0.44900659  0.45071992  1
  O  O20  4  0.31078915  0.59962344  0.60884578  1
