###############################################################################################
#
# CIF file generated by modified CIFWriter class 
# in pymatgen (v2025.03.10) https://pymatgen.org/
#
###############################################################################################
data_MACE-OFF23(L)_95a2305d991dd7c
_symmetry_space_group_name_H-M   P222
_cell_length_a   7.28826041
_cell_length_b   9.41652372
_cell_length_c   17.97124156
_cell_angle_alpha   90.00000000
_cell_angle_beta   90.00000000
_cell_angle_gamma   90.00000000
_symmetry_Int_Tables_number   16
_chemical_formula_moiety   'C9 H8 O4'
_chemical_formula_sum   'H32 C36 O16'
_cell_volume   1233.36769235
_cell_formula_units_Z   4
loop_
 _symmetry_equiv_pos_site_id
 _symmetry_equiv_pos_as_xyz
  1  'x, y, z'
  2  '-x, -y, z'
  3  'x, -y, -z'
  4  '-x, y, -z'
loop_
 _atom_site_type_symbol
 _atom_site_label
 _atom_site_symmetry_multiplicity
 _atom_site_fract_x
 _atom_site_fract_y
 _atom_site_fract_z
 _atom_site_occupancy
  H  H0  4  0.13862517  0.44404268  0.62576803  1
  H  H1  4  0.14909351  0.42991059  0.30175747  1
  H  H2  4  0.19395275  0.08775303  0.70607466  1
  H  H3  4  0.23416799  0.45736390  0.06410188  1
  H  H4  4  0.26003260  -0.13885519  0.77111040  1
  H  H5  4  0.28763679  0.09055080  0.97576103  1
  H  H6  4  0.30074320  -0.13858810  0.90762825  1
  H  H7  4  0.34232296  0.45491168  0.36055746  1
  C  C8  4  0.20592046  0.21217212  0.80449594  1
  C  C9  4  0.21446218  0.08531561  0.76556356  1
  C  C10  4  0.22845656  0.49320407  0.66673792  1
  C  C11  4  0.23269610  0.78438294  0.11890874  1
  C  C12  4  0.23333570  0.34385104  0.92983979  1
  C  C13  4  0.25009598  -0.04080228  0.80201894  1
  C  C14  4  0.26570062  0.08654694  0.91675620  1
  C  C15  4  0.27416947  -0.04043066  0.87859030  1
  C  C16  4  0.29805059  0.37916242  0.71702864  1
  O  O17  4  0.16390605  0.33355217  0.76423976  1
  O  O18  4  0.23173891  0.46792711  0.89664434  1
  O  O19  4  0.23807738  0.33179921  0.99783128  1
  O  O20  4  0.44835961  0.32735143  0.71644293  1
