###############################################################################################
#
# CIF file generated by modified CIFWriter class 
# in pymatgen (v2025.03.10) https://pymatgen.org/
#
###############################################################################################
data_MACE-OFF23(L)_98f018e9b2a7d8d
_symmetry_space_group_name_H-M   P2_1/c
_cell_length_a   12.04471368
_cell_length_b   6.34410469
_cell_length_c   11.30844575
_cell_angle_alpha   90.00000000
_cell_angle_beta   67.75565872
_cell_angle_gamma   90.00000000
_symmetry_Int_Tables_number   14
_chemical_formula_moiety   'C9 H8 O4'
_chemical_formula_sum   'H32 C36 O16'
_cell_volume   799.80242298
_cell_formula_units_Z   4
loop_
 _symmetry_equiv_pos_site_id
 _symmetry_equiv_pos_as_xyz
  1  'x, y, z'
  2  '-x, -y, -z'
  3  '-x, y+1/2, -z+1/2'
  4  'x, -y+1/2, z+1/2'
loop_
 _atom_site_type_symbol
 _atom_site_label
 _atom_site_symmetry_multiplicity
 _atom_site_fract_x
 _atom_site_fract_y
 _atom_site_fract_z
 _atom_site_occupancy
  H  H0  4  0.04613779  1.00002094  0.68529704  1
  H  H1  4  0.07347829  0.98103381  0.89434607  1
  H  H2  4  0.14096387  1.33648180  0.70230492  1
  H  H3  4  0.30583955  1.47968050  0.51207862  1
  H  H4  4  0.32339973  0.58738025  0.12520448  1
  H  H5  4  0.37581147  0.22092985  0.80935240  1
  H  H6  4  0.43929221  0.73161416  0.55122529  1
  H  H7  4  0.47055916  0.96544464  0.61975474  1
  C  C8  4  0.09309742  0.74781762  0.49092683  1
  C  C9  4  0.11895770  1.06230032  0.60400498  1
  C  C10  4  0.15819483  0.94709721  0.49052785  1
  C  C11  4  0.17187236  1.25167064  0.61310581  1
  C  C12  4  0.25293392  1.02848307  0.38571490  1
  C  C13  4  0.26433912  0.16896150  1.00710677  1
  C  C14  4  0.30409301  0.27981726  0.89303338  1
  C  C15  4  0.37431305  0.76503236  0.25443159  1
  C  C16  4  0.40460038  0.84373639  0.62936450  1
  O  O17  4  0.01314400  0.81407050  1.08878371  1
  O  O18  4  0.12481686  0.64706045  0.38189047  1
  O  O19  4  0.29609591  0.57438065  0.76837624  1
  O  O20  4  0.41304096  0.72165319  0.33529162  1
