###############################################################################################
#
# CIF file generated by modified CIFWriter class 
# in pymatgen (v2025.03.10) https://pymatgen.org/
#
###############################################################################################
data_MACE-OFF23(L)_995fa774615045f
_symmetry_space_group_name_H-M   P2_1/c
_cell_length_a   5.81080081
_cell_length_b   11.28844029
_cell_length_c   12.54977463
_cell_angle_alpha   90.00000000
_cell_angle_beta   78.40591915
_cell_angle_gamma   90.00000000
_symmetry_Int_Tables_number   14
_chemical_formula_moiety   'C9 H8 O4'
_chemical_formula_sum   'H32 C36 O16'
_cell_volume   806.40435764
_cell_formula_units_Z   4
loop_
 _symmetry_equiv_pos_site_id
 _symmetry_equiv_pos_as_xyz
  1  'x, y, z'
  2  '-x, -y, -z'
  3  '-x, y+1/2, -z+1/2'
  4  'x, -y+1/2, z+1/2'
loop_
 _atom_site_type_symbol
 _atom_site_label
 _atom_site_symmetry_multiplicity
 _atom_site_fract_x
 _atom_site_fract_y
 _atom_site_fract_z
 _atom_site_occupancy
  H  H0  4  -0.34232189  0.57866907  0.33098393  1
  H  H1  4  -0.31418996  0.47344655  0.43012958  1
  H  H2  4  -0.28432401  0.62453113  0.45984526  1
  H  H3  4  0.08582026  -0.07490757  0.45690566  1
  H  H4  4  0.10545476  0.68629877  0.69683824  1
  H  H5  4  0.24058032  0.36988293  0.92985079  1
  H  H6  4  0.24971665  1.20522906  0.70926548  1
  H  H7  4  0.34939111  -0.24361533  0.39351974  1
  C  C8  4  -0.24967911  0.55865586  0.39577461  1
  C  C9  4  0.00772751  0.55004401  0.35198339  1
  C  C10  4  0.26454606  0.55923750  0.91559780  1
  C  C11  4  0.28060931  1.01797580  0.69633317  1
  C  C12  4  0.34933020  0.44495163  0.90018332  1
  C  C13  4  0.34962779  0.79508005  0.65381378  1
  C  C14  4  0.36286410  1.13247312  0.67752835  1
  C  C15  4  0.41105402  -0.15365014  0.37915619  1
  C  C16  4  0.42099547  0.92174188  0.65372661  1
  O  O17  4  0.05035317  0.49273004  0.25334398  1
  O  O18  4  0.12341751  0.77192256  0.69658883  1
  O  O19  4  0.16332600  0.58384265  0.39417829  1
  O  O20  4  0.48377864  0.71730631  0.61582396  1
