###############################################################################################
#
# CIF file generated by modified CIFWriter class 
# in pymatgen (v2025.03.10) https://pymatgen.org/
#
###############################################################################################
data_MACE-OFF23(L)_9a247761b4e9f2f
_symmetry_space_group_name_H-M   P4_2
_cell_length_a   12.72422808
_cell_length_b   12.72422808
_cell_length_c   6.19999611
_cell_angle_alpha   90.00000000
_cell_angle_beta   90.00000000
_cell_angle_gamma   90.00000000
_symmetry_Int_Tables_number   77
_chemical_formula_moiety   'C9 H8 O4'
_chemical_formula_sum   'H32 C36 O16'
_cell_volume   1003.81644666
_cell_formula_units_Z   4
loop_
 _symmetry_equiv_pos_site_id
 _symmetry_equiv_pos_as_xyz
  1  'x, y, z'
  2  '-y, x, z+1/2'
  3  '-x, -y, z'
  4  'y, -x, z+1/2'
loop_
 _atom_site_type_symbol
 _atom_site_label
 _atom_site_symmetry_multiplicity
 _atom_site_fract_x
 _atom_site_fract_y
 _atom_site_fract_z
 _atom_site_occupancy
  H  H0  4  -0.18201919  0.31863623  0.66115210  1
  H  H1  4  -0.09630130  0.15981587  1.24231374  1
  H  H2  4  0.09068497  0.19730067  1.16440406  1
  H  H3  4  0.10545858  0.42376288  0.33449506  1
  H  H4  4  0.22077292  1.23377209  0.48935315  1
  H  H5  4  0.30019310  0.64058388  0.32718715  1
  H  H6  4  0.32232916  0.41116445  0.67586344  1
  H  H7  4  0.37228733  0.42913892  0.94101089  1
  C  C8  4  -0.15219052  0.23676996  0.95673345  1
  C  C9  4  -0.12340636  0.29113256  0.77354718  1
  C  C10  4  -0.07509719  0.20196740  1.09777229  1
  C  C11  4  -0.01846986  0.31246470  0.72604916  1
  C  C12  4  0.00113400  0.36879209  0.51838872  1
  C  C13  4  0.02951738  0.22285199  1.05575889  1
  C  C14  4  0.05709932  0.27850767  0.87293399  1
  C  C15  4  0.21541047  0.37355148  0.92274123  1
  C  C16  4  0.32549972  0.37852169  0.83820920  1
  O  O17  4  -0.06995545  0.39605091  0.40198078  1
  O  O18  4  0.10183068  0.38516197  0.47052055  1
  O  O19  4  0.16376913  0.29192944  0.83246751  1
  O  O20  4  0.17644368  0.43297461  1.05042419  1
