###############################################################################################
#
# CIF file generated by modified CIFWriter class 
# in pymatgen (v2025.03.10) https://pymatgen.org/
#
###############################################################################################
data_MACE-OFF23(L)_9d4e45dde5094a0
_symmetry_space_group_name_H-M   P-4
_cell_length_a   11.08463339
_cell_length_b   11.08463339
_cell_length_c   7.52478466
_cell_angle_alpha   90.00000000
_cell_angle_beta   90.00000000
_cell_angle_gamma   90.00000000
_symmetry_Int_Tables_number   81
_chemical_formula_moiety   'C9 H8 O4'
_chemical_formula_sum   'H32 C36 O16'
_cell_volume   924.56349938
_cell_formula_units_Z   4
loop_
 _symmetry_equiv_pos_site_id
 _symmetry_equiv_pos_as_xyz
  1  'x, y, z'
  2  'y, -x, -z'
  3  '-x, -y, z'
  4  '-y, x, -z'
loop_
 _atom_site_type_symbol
 _atom_site_label
 _atom_site_symmetry_multiplicity
 _atom_site_fract_x
 _atom_site_fract_y
 _atom_site_fract_z
 _atom_site_occupancy
  H  H0  4  0.03088747  0.77341375  0.37509551  1
  H  H1  4  0.05850952  0.25247265  -0.14614292  1
  H  H2  4  0.08720747  0.56885858  0.27982782  1
  H  H3  4  0.11937375  0.86027370  0.65017690  1
  H  H4  4  0.13934602  0.38415214  -0.09171319  1
  H  H5  4  0.19450486  0.28481505  -0.25983291  1
  H  H6  4  0.22820990  0.44868489  0.46430102  1
  H  H7  4  0.36639225  0.45753051  0.99866681  1
  C  C8  4  0.09181974  0.72075191  0.45559870  1
  C  C9  4  0.12288718  0.60522631  0.40186709  1
  C  C10  4  0.14159889  0.76991703  0.60809270  1
  C  C11  4  0.14811884  0.29097626  -0.13311053  1
  C  C12  4  0.20192916  0.53851965  0.50367016  1
  C  C13  4  0.21577546  0.21749854  -0.00002878  1
  C  C14  4  0.22184552  0.70294149  0.70868021  1
  C  C15  4  0.25131944  0.58569370  0.65912011  1
  C  C16  4  0.33017044  0.50385683  0.76313065  1
  O  O17  4  0.11359925  0.75632372  1.01783986  1
  O  O18  4  0.24153248  0.28148070  0.15050280  1
  O  O19  4  0.33179672  0.52811653  0.93914394  1
  O  O20  4  0.38254509  0.41852663  0.70183357  1
