###############################################################################################
#
# CIF file generated by modified CIFWriter class 
# in pymatgen (v2025.03.10) https://pymatgen.org/
#
###############################################################################################
data_MACE-OFF23(L)_9e161c7f7cd4578
_symmetry_space_group_name_H-M   P2_12_12_1
_cell_length_a   7.80213767
_cell_length_b   22.19619111
_cell_length_c   4.79335333
_cell_angle_alpha   90.00000000
_cell_angle_beta   90.00000000
_cell_angle_gamma   90.00000000
_symmetry_Int_Tables_number   19
_chemical_formula_moiety   'C9 H8 O4'
_chemical_formula_sum   'H32 C36 O16'
_cell_volume   830.10209199
_cell_formula_units_Z   4
loop_
 _symmetry_equiv_pos_site_id
 _symmetry_equiv_pos_as_xyz
  1  'x, y, z'
  2  '-x, y+1/2, -z+1/2'
  3  '-x+1/2, -y, z+1/2'
  4  'x+1/2, -y+1/2, -z'
loop_
 _atom_site_type_symbol
 _atom_site_label
 _atom_site_symmetry_multiplicity
 _atom_site_fract_x
 _atom_site_fract_y
 _atom_site_fract_z
 _atom_site_occupancy
  H  H0  4  -0.11024654  0.49792191  0.51322265  1
  H  H1  4  -0.07767644  0.54322796  0.21545156  1
  H  H2  4  0.04191524  0.31550713  0.69950853  1
  H  H3  4  0.07706061  0.70613375  0.39223819  1
  H  H4  4  0.09343928  0.21426939  0.50318488  1
  H  H5  4  0.21944027  0.79609060  0.58508983  1
  H  H6  4  0.22600732  0.95181067  0.59433103  1
  H  H7  4  0.23929684  0.49905502  0.60703511  1
  C  C8  4  -0.13653311  0.54172280  0.42049901  1
  C  C9  4  -0.06389756  0.58974666  0.60334389  1
  C  C10  4  0.12477290  0.30972342  0.52208075  1
  C  C11  4  0.15284349  0.25329789  0.41019220  1
  C  C12  4  0.15995646  0.70233694  0.57092437  1
  C  C13  4  0.16738732  0.41829207  0.56340607  1
  C  C14  4  0.18627596  0.64614976  0.68782592  1
  C  C15  4  0.20449183  0.36096111  0.41481094  1
  C  C16  4  0.23998873  0.75259411  0.68087919  1
  O  O17  4  -0.14071028  0.61896412  0.77284074  1
  O  O18  4  0.06474332  0.42233901  0.75049604  1
  O  O19  4  0.10758552  0.59744742  0.55599167  1
  O  O20  4  0.23992181  0.53422704  0.97738649  1
