###############################################################################################
#
# CIF file generated by modified CIFWriter class 
# in pymatgen (v2025.03.10) https://pymatgen.org/
#
###############################################################################################
data_MACE-OFF23(L)_9fa53d42d9a9c3c
_symmetry_space_group_name_H-M   P2_12_12_1
_cell_length_a   12.29121461
_cell_length_b   10.13962811
_cell_length_c   6.50956646
_cell_angle_alpha   90.00000000
_cell_angle_beta   90.00000000
_cell_angle_gamma   90.00000000
_symmetry_Int_Tables_number   19
_chemical_formula_moiety   'C9 H8 O4'
_chemical_formula_sum   'H32 C36 O16'
_cell_volume   811.27649485
_cell_formula_units_Z   4
loop_
 _symmetry_equiv_pos_site_id
 _symmetry_equiv_pos_as_xyz
  1  'x, y, z'
  2  'x+1/2, -y+1/2, -z'
  3  '-x+1/2, -y, z+1/2'
  4  '-x, y+1/2, -z+1/2'
loop_
 _atom_site_type_symbol
 _atom_site_label
 _atom_site_symmetry_multiplicity
 _atom_site_fract_x
 _atom_site_fract_y
 _atom_site_fract_z
 _atom_site_occupancy
  H  H0  4  -0.04936399  0.56287085  0.88910976  1
  H  H1  4  0.01732378  0.17216532  0.24418771  1
  H  H2  4  0.03880263  0.49984146  1.07969055  1
  H  H3  4  0.05408388  0.44958456  0.81922300  1
  H  H4  4  0.05869772  0.00450324  -0.02336887  1
  H  H5  4  0.12103504  0.83376479  0.41768871  1
  H  H6  4  0.16148688  0.52672601  0.49772775  1
  H  H7  4  0.23960025  0.00354094  -0.18867436  1
  C  C8  4  0.03343246  0.53060651  0.92063597  1
  C  C9  4  0.09639069  0.16814406  0.17206680  1
  C  C10  4  0.10783648  0.64521056  0.89026133  1
  C  C11  4  0.11917154  0.07615247  0.02091058  1
  C  C12  4  0.14456421  0.35125284  0.40339576  1
  C  C13  4  0.17455548  0.25895918  0.23427103  1
  C  C14  4  0.20048750  0.83461710  0.48785775  1
  C  C15  4  0.22076148  0.07515552  -0.07143281  1
  C  C16  4  0.22380860  0.74466867  0.64068731  1
  O  O17  4  0.08811487  0.31907602  0.54633185  1
  O  O18  4  0.13658898  0.72320532  1.01663686  1
  O  O19  4  0.14262418  0.65335888  0.68899032  1
  O  O20  4  0.18174041  0.47391623  0.37774794  1
