###############################################################################################
#
# CIF file generated by modified CIFWriter class 
# in pymatgen (v2025.03.10) https://pymatgen.org/
#
###############################################################################################
data_MACE-OFF23(L)_a080c6707b9f8c0
_symmetry_space_group_name_H-M   P2_1/c
_cell_length_a   7.81827394
_cell_length_b   11.02670946
_cell_length_c   9.85424415
_cell_angle_alpha   90.00000000
_cell_angle_beta   112.52589446
_cell_angle_gamma   90.00000000
_symmetry_Int_Tables_number   14
_chemical_formula_moiety   'C9 H8 O4'
_chemical_formula_sum   'H32 C36 O16'
_cell_volume   784.71892494
_cell_formula_units_Z   4
loop_
 _symmetry_equiv_pos_site_id
 _symmetry_equiv_pos_as_xyz
  1  'x, y, z'
  2  '-x, -y, -z'
  3  '-x, y+1/2, -z+1/2'
  4  'x, -y+1/2, z+1/2'
loop_
 _atom_site_type_symbol
 _atom_site_label
 _atom_site_symmetry_multiplicity
 _atom_site_fract_x
 _atom_site_fract_y
 _atom_site_fract_z
 _atom_site_occupancy
  H  H0  4  -0.06893489  -0.04909460  0.69849719  1
  H  H1  4  -0.02653958  0.51471923  0.38261673  1
  H  H2  4  0.12184612  -0.11734724  0.84400995  1
  H  H3  4  0.16521341  0.87766309  0.58573235  1
  H  H4  4  0.16690718  0.67998790  0.70573384  1
  H  H5  4  0.19607990  0.23835337  1.13360819  1
  H  H6  4  0.40270659  0.92179489  0.48784092  1
  H  H7  4  0.40665843  0.52561600  0.71880923  1
  C  C8  4  0.03966035  0.53584470  0.30627376  1
  C  C9  4  0.15664152  0.06949583  0.80121055  1
  C  C10  4  0.26904919  0.69885043  0.65956076  1
  C  C11  4  0.26907921  0.68959102  0.09431023  1
  C  C12  4  0.32775162  0.28712824  1.01990416  1
  C  C13  4  0.40170484  0.61287414  0.66779649  1
  C  C14  4  0.40249026  0.83529520  0.53848241  1
  C  C15  4  0.46310071  0.24980548  0.95475197  1
  C  C16  4  0.46516411  0.13914290  0.88821125  1
  O  O17  4  0.09888645  0.16455194  0.73911191  1
  O  O18  4  0.26778627  0.19905238  1.08297969  1
  O  O19  4  0.28181691  0.10813147  0.52046481  1
  O  O20  4  0.33772069  0.04784646  0.87679780  1
