###############################################################################################
#
# CIF file generated by modified CIFWriter class 
# in pymatgen (v2025.03.10) https://pymatgen.org/
#
###############################################################################################
data_MACE-OFF23(L)_a0b7dc9b23c0c8e
_symmetry_space_group_name_H-M   Pnn2
_cell_length_a   16.81145382
_cell_length_b   8.00779923
_cell_length_c   6.32136974
_cell_angle_alpha   90.00000000
_cell_angle_beta   90.00000000
_cell_angle_gamma   90.00000000
_symmetry_Int_Tables_number   34
_chemical_formula_moiety   'C9 H8 O4'
_chemical_formula_sum   'H32 C36 O16'
_cell_volume   851.00015994
_cell_formula_units_Z   4
loop_
 _symmetry_equiv_pos_site_id
 _symmetry_equiv_pos_as_xyz
  1  'x, y, z'
  2  '-x, -y, z'
  3  'x+1/2, -y+1/2, z+1/2'
  4  '-x+1/2, y+1/2, z+1/2'
loop_
 _atom_site_type_symbol
 _atom_site_label
 _atom_site_symmetry_multiplicity
 _atom_site_fract_x
 _atom_site_fract_y
 _atom_site_fract_z
 _atom_site_occupancy
  H  H0  4  -0.05588511  0.68792868  0.71074354  1
  H  H1  4  -0.02373615  0.63704786  0.44911670  1
  H  H2  4  -0.00815563  0.83990794  0.54466957  1
  H  H3  4  0.06835447  0.12362445  0.13729872  1
  H  H4  4  0.12347912  1.09668995  0.62035447  1
  H  H5  4  0.13588777  0.39984722  0.12721994  1
  H  H6  4  0.14983023  -0.13615740  0.10982216  1
  H  H7  4  0.20584648  0.38496172  0.56550894  1
  C  C8  4  -0.01081548  0.70909405  0.59053398  1
  C  C9  4  0.06909390  0.66646298  0.68058260  1
  C  C10  4  0.13228923  0.13080767  0.12115587  1
  C  C11  4  0.16934437  0.28497036  0.11562581  1
  C  C12  4  0.17744895  -0.01432102  0.10634652  1
  C  C13  4  0.20442466  0.65116173  0.57347951  1
  C  C14  4  0.21503080  0.96990562  0.59559556  1
  C  C15  4  0.24091031  0.49679519  0.58228543  1
  C  C16  4  0.24826723  0.79771138  0.59341183  1
  O  O17  4  0.08395780  0.64551895  0.86364546  1
  O  O18  4  0.12376041  0.65595782  0.52274071  1
  O  O19  4  0.13526278  0.97903798  0.60825456  1
  O  O20  4  0.24474353  0.59393977  0.09175627  1
