###############################################################################################
#
# CIF file generated by modified CIFWriter class 
# in pymatgen (v2025.03.10) https://pymatgen.org/
#
###############################################################################################
data_MACE-OFF23(L)_a3a3bd12401d3b5
_symmetry_space_group_name_H-M   Pcc2
_cell_length_a   14.45929990
_cell_length_b   12.17755141
_cell_length_c   6.13379137
_cell_angle_alpha   90.00000000
_cell_angle_beta   90.00000000
_cell_angle_gamma   90.00000000
_symmetry_Int_Tables_number   27
_chemical_formula_moiety   'C9 H8 O4'
_chemical_formula_sum   'H32 C36 O16'
_cell_volume   1080.03104049
_cell_formula_units_Z   4
loop_
 _symmetry_equiv_pos_site_id
 _symmetry_equiv_pos_as_xyz
  1  'x, y, z'
  2  '-x, -y, z'
  3  'x, -y, z+1/2'
  4  '-x, y, z+1/2'
loop_
 _atom_site_type_symbol
 _atom_site_label
 _atom_site_symmetry_multiplicity
 _atom_site_fract_x
 _atom_site_fract_y
 _atom_site_fract_z
 _atom_site_occupancy
  H  H0  4  0.12142863  0.07808822  1.20172634  1
  H  H1  4  0.16964537  0.10580747  1.46393104  1
  H  H2  4  0.18736302  0.36958818  0.93299818  1
  H  H3  4  0.22705961  0.01699772  1.27875899  1
  H  H4  4  0.26863047  0.47308855  0.26061699  1
  H  H5  4  0.42204337  -0.01955935  0.78768255  1
  H  H6  4  0.42531173  0.49850879  0.11398183  1
  H  H7  4  0.49900352  0.31943834  0.13830369  1
  C  C8  4  0.18493743  0.09061880  1.29360005  1
  C  C9  4  0.23630442  0.18685554  1.20335493  1
  C  C10  4  0.25558585  0.35987000  0.86424399  1
  C  C11  4  0.29865069  0.25864937  0.88042891  1
  C  C12  4  0.30083621  0.55296762  0.26752765  1
  C  C13  4  0.38664747  0.75757326  0.29442577  1
  C  C14  4  0.38974569  0.43306290  0.68715940  1
  C  C15  4  0.43201041  0.33179657  0.70048290  1
  C  C16  4  0.43598229  0.13567991  0.79124811  1
  O  O17  4  0.25223398  0.82617824  0.48488547  1
  O  O18  4  0.26096582  0.26625306  1.30291682  1
  O  O19  4  0.38313078  0.04856938  0.79401673  1
  O  O20  4  0.47938935  0.13148841  0.27867815  1
