###############################################################################################
#
# CIF file generated by modified CIFWriter class 
# in pymatgen (v2025.03.10) https://pymatgen.org/
#
###############################################################################################
data_MACE-OFF23(L)_a3cd42c512a79c3
_symmetry_space_group_name_H-M   P2_12_12_1
_cell_length_a   8.48165052
_cell_length_b   17.58045106
_cell_length_c   5.20522080
_cell_angle_alpha   90.00000000
_cell_angle_beta   90.00000000
_cell_angle_gamma   90.00000000
_symmetry_Int_Tables_number   19
_chemical_formula_moiety   'C9 H8 O4'
_chemical_formula_sum   'H32 C36 O16'
_cell_volume   776.15693760
_cell_formula_units_Z   4
loop_
 _symmetry_equiv_pos_site_id
 _symmetry_equiv_pos_as_xyz
  1  'x, y, z'
  2  '-x, y+1/2, -z+1/2'
  3  '-x+1/2, -y, z+1/2'
  4  'x+1/2, -y+1/2, -z'
loop_
 _atom_site_type_symbol
 _atom_site_label
 _atom_site_symmetry_multiplicity
 _atom_site_fract_x
 _atom_site_fract_y
 _atom_site_fract_z
 _atom_site_occupancy
  H  H0  4  -0.18230584  0.77968750  -0.72493315  1
  H  H1  4  -0.16593648  1.00902858  -0.46494233  1
  H  H2  4  -0.11348261  0.71822297  -0.48297227  1
  H  H3  4  -0.09882349  1.11819981  -0.19118875  1
  H  H4  4  0.06952892  1.09929306  0.19755925  1
  H  H5  4  0.12097295  0.73950228  0.05585757  1
  H  H6  4  0.18218539  0.76615816  1.51137020  1
  H  H7  4  0.18566303  0.97332757  0.27861814  1
  C  C8  4  -0.20293888  0.76032030  -0.53006693  1
  C  C9  4  -0.18785642  0.82449226  -0.34516493  1
  C  C10  4  -0.09155054  1.00164414  -0.29875054  1
  C  C11  4  -0.05343193  1.06270852  -0.14235620  1
  C  C12  4  -0.03205602  0.93053758  -0.24123785  1
  C  C13  4  0.04293066  1.05262860  0.07011686  1
  C  C14  4  0.07074089  0.91966575  -0.03719271  1
  C  C15  4  0.10672516  0.98163189  0.11848833  1
  C  C16  4  0.15176546  0.84618382  0.01780833  1
  O  O17  4  -0.06617023  0.87015808  -0.40719533  1
  O  O18  4  0.05966730  0.78529312  0.00666642  1
  O  O19  4  0.20943344  0.15661116  0.57058601  1
  O  O20  4  0.22820493  0.66319497  1.16177236  1
