###############################################################################################
#
# CIF file generated by modified CIFWriter class 
# in pymatgen (v2025.03.10) https://pymatgen.org/
#
###############################################################################################
data_MACE-OFF23(L)_a4af2ba06d2340b
_symmetry_space_group_name_H-M   Pca2_1
_cell_length_a   15.37218083
_cell_length_b   5.83776631
_cell_length_c   9.28841660
_cell_angle_alpha   90.00000000
_cell_angle_beta   90.00000000
_cell_angle_gamma   90.00000000
_symmetry_Int_Tables_number   29
_chemical_formula_moiety   'C9 H8 O4'
_chemical_formula_sum   'H32 C36 O16'
_cell_volume   833.53506981
_cell_formula_units_Z   4
loop_
 _symmetry_equiv_pos_site_id
 _symmetry_equiv_pos_as_xyz
  1  'x, y, z'
  2  '-x, -y, z+1/2'
  3  '-x+1/2, y, z+1/2'
  4  'x+1/2, -y, z'
loop_
 _atom_site_type_symbol
 _atom_site_label
 _atom_site_symmetry_multiplicity
 _atom_site_fract_x
 _atom_site_fract_y
 _atom_site_fract_z
 _atom_site_occupancy
  H  H0  4  -0.10044340  0.54926982  0.77478417  1
  H  H1  4  -0.06517080  1.18949553  0.53364703  1
  H  H2  4  -0.01210807  0.27425285  0.91063070  1
  H  H3  4  0.13329844  1.38128090  0.54381053  1
  H  H4  4  0.14496578  0.35202143  0.94948673  1
  H  H5  4  0.21082874  0.70981360  0.85173428  1
  H  H6  4  0.21101268  1.26488194  0.42153703  1
  H  H7  4  0.23886669  1.31813102  0.60510511  1
  C  C8  4  -0.05768326  0.93517565  0.65699968  1
  C  C9  4  -0.03208345  0.58105301  0.79169038  1
  C  C10  4  0.00371085  0.78078738  0.73474547  1
  C  C11  4  0.01781807  0.42754046  0.86870652  1
  C  C12  4  0.09232091  0.82117489  0.75629588  1
  C  C13  4  0.10551680  0.47221501  0.89042600  1
  C  C14  4  0.14286528  0.66994015  0.83501180  1
  C  C15  4  0.15943918  1.02797718  0.57009238  1
  C  C16  4  0.18783013  1.26430901  0.53172679  1
  O  O17  4  -0.13556097  0.90759366  0.65734726  1
  O  O18  4  -0.01990800  1.10401968  0.58322361  1
  O  O19  4  0.13168917  1.02059915  0.70944410  1
  O  O20  4  0.15893042  0.86215738  0.49370653  1
