###############################################################################################
#
# CIF file generated by modified CIFWriter class 
# in pymatgen (v2025.03.10) https://pymatgen.org/
#
###############################################################################################
data_MACE-OFF23(L)_a8da13f0d649cb8
_symmetry_space_group_name_H-M   P2_12_12_1
_cell_length_a   13.73836253
_cell_length_b   7.14917426
_cell_length_c   8.35681859
_cell_angle_alpha   90.00000000
_cell_angle_beta   90.00000000
_cell_angle_gamma   90.00000000
_symmetry_Int_Tables_number   19
_chemical_formula_moiety   'C9 H8 O4'
_chemical_formula_sum   'H32 C36 O16'
_cell_volume   820.78957155
_cell_formula_units_Z   4
loop_
 _symmetry_equiv_pos_site_id
 _symmetry_equiv_pos_as_xyz
  1  'x, y, z'
  2  'x+1/2, -y+1/2, -z'
  3  '-x, y+1/2, -z+1/2'
  4  '-x+1/2, -y, z+1/2'
loop_
 _atom_site_type_symbol
 _atom_site_label
 _atom_site_symmetry_multiplicity
 _atom_site_fract_x
 _atom_site_fract_y
 _atom_site_fract_z
 _atom_site_occupancy
  H  H0  4  0.03997142  0.56331091  1.05621896  1
  H  H1  4  0.04221139  -0.22600640  0.70723224  1
  H  H2  4  0.04431899  1.15554979  1.17632714  1
  H  H3  4  0.07669415  -0.24407242  0.50342176  1
  H  H4  4  0.12820041  0.26997075  0.39049008  1
  H  H5  4  0.13997204  0.33271628  0.90959116  1
  H  H6  4  0.16017813  -0.30927813  0.65212623  1
  H  H7  4  0.19302817  0.58106996  0.32724397  1
  C  C8  4  0.08124406  0.90330740  1.14155995  1
  C  C9  4  0.10202474  -0.21185099  0.62361858  1
  C  C10  4  0.11240470  0.59884374  1.01750738  1
  C  C11  4  0.13963873  -0.01647216  0.62460094  1
  C  C12  4  0.14764258  0.77767244  1.05140383  1
  C  C13  4  0.16836511  0.46942577  0.93676791  1
  C  C14  4  0.20134224  0.30625852  0.42441476  1
  C  C15  4  0.23795653  0.48186499  0.39068156  1
  C  C16  4  0.24180238  0.82376631  1.00386254  1
  O  O17  4  0.02002494  0.84357339  1.23467388  1
  O  O18  4  0.09100036  1.08275249  1.11235747  1
  O  O19  4  0.10565759  0.11457555  0.69438738  1
  O  O20  4  0.22115953  -0.00096280  0.53078909  1
