###############################################################################################
#
# CIF file generated by modified CIFWriter class 
# in pymatgen (v2025.03.10) https://pymatgen.org/
#
###############################################################################################
data_MACE-OFF23(L)_aa8457cbef1434c
_symmetry_space_group_name_H-M   P2_1/c
_cell_length_a   10.75995791
_cell_length_b   14.05024211
_cell_length_c   5.45738624
_cell_angle_alpha   90.00000000
_cell_angle_beta   90.64190260
_cell_angle_gamma   90.00000000
_symmetry_Int_Tables_number   14
_chemical_formula_moiety   'C9 H8 O4'
_chemical_formula_sum   'H32 C36 O16'
_cell_volume   824.99594922
_cell_formula_units_Z   4
loop_
 _symmetry_equiv_pos_site_id
 _symmetry_equiv_pos_as_xyz
  1  'x, y, z'
  2  '-x, -y, -z'
  3  '-x, y+1/2, -z+1/2'
  4  'x, -y+1/2, z+1/2'
loop_
 _atom_site_type_symbol
 _atom_site_label
 _atom_site_symmetry_multiplicity
 _atom_site_fract_x
 _atom_site_fract_y
 _atom_site_fract_z
 _atom_site_occupancy
  H  H0  4  0.04576309  0.02623201  0.85677752  1
  H  H1  4  0.10299216  0.28838259  0.72222890  1
  H  H2  4  0.10322934  0.63782264  1.48790463  1
  H  H3  4  0.26507629  0.72435536  1.25901500  1
  H  H4  4  0.37105541  0.64529488  0.91239325  1
  H  H5  4  0.40324006  0.40333139  0.37078677  1
  H  H6  4  0.45304717  0.59125225  0.47005575  1
  H  H7  4  0.46269217  0.19965667  0.02065377  1
  C  C8  4  0.11535354  0.51367596  1.26071022  1
  C  C9  4  0.12009246  0.37549113  0.98699315  1
  C  C10  4  0.14848864  -0.10452057  0.83427591  1
  C  C11  4  0.16895266  0.02919017  0.55778673  1
  C  C12  4  0.23886558  -0.15302949  0.70571321  1
  C  C13  4  0.26208842  -0.02010350  0.43525959  1
  C  C14  4  0.29663562  -0.11048688  0.50826715  1
  C  C15  4  0.39235117  0.09586444  0.26142699  1
  C  C16  4  0.45439269  0.12274025  0.02916033  1
  O  O17  4  0.06299621  0.17439463  0.62897865  1
  O  O18  4  0.13907054  0.35155766  0.75606062  1
  O  O19  4  0.32285233  0.48436585  0.73270674  1
  O  O20  4  0.40261569  0.13596776  0.45504472  1
