###############################################################################################
#
# CIF file generated by modified CIFWriter class 
# in pymatgen (v2025.03.10) https://pymatgen.org/
#
###############################################################################################
data_MACE-OFF23(L)_aab75fac6cdba73
_symmetry_space_group_name_H-M   Pba2
_cell_length_a   12.00527323
_cell_length_b   14.69953954
_cell_length_c   4.97456371
_cell_angle_alpha   90.00000000
_cell_angle_beta   90.00000000
_cell_angle_gamma   90.00000000
_symmetry_Int_Tables_number   32
_chemical_formula_moiety   'C9 H8 O4'
_chemical_formula_sum   'H32 C36 O16'
_cell_volume   877.87114957
_cell_formula_units_Z   4
loop_
 _symmetry_equiv_pos_site_id
 _symmetry_equiv_pos_as_xyz
  1  'x, y, z'
  2  '-x, -y, z'
  3  '-x+1/2, y+1/2, z'
  4  'x+1/2, -y+1/2, z'
loop_
 _atom_site_type_symbol
 _atom_site_label
 _atom_site_symmetry_multiplicity
 _atom_site_fract_x
 _atom_site_fract_y
 _atom_site_fract_z
 _atom_site_occupancy
  H  H0  4  -0.05679970  0.87379373  0.99194652  1
  H  H1  4  -0.01948780  0.78129865  0.58606102  1
  H  H2  4  0.00916751  0.41326073  0.51083008  1
  H  H3  4  0.02548807  0.58241854  1.08881879  1
  H  H4  4  0.09602528  0.96697009  1.18928742  1
  H  H5  4  0.09905921  0.68448863  1.03265357  1
  H  H6  4  0.13811426  0.61304872  1.30683775  1
  H  H7  4  0.17030050  0.77877154  0.39311960  1
  C  C8  4  0.02517401  0.87344135  0.90265184  1
  C  C9  4  0.04606567  0.82080555  0.67689709  1
  C  C10  4  0.10692429  0.61482105  1.10123323  1
  C  C11  4  0.10955431  0.92583326  1.01242466  1
  C  C12  4  0.15166653  0.81999994  0.56648297  1
  C  C13  4  0.15395758  0.36682614  0.52885150  1
  C  C14  4  0.18716734  0.56447698  0.92567016  1
  C  C15  4  0.21393709  0.92669151  0.89556633  1
  C  C16  4  0.23732182  0.87323009  0.67154038  1
  O  O17  4  0.07509367  0.42431419  0.61804085  1
  O  O18  4  0.13665417  0.31433566  0.34786247  1
  O  O19  4  0.20596193  0.47968106  1.02459403  1
  O  O20  4  0.23110587  0.59295933  0.72608669  1
