###############################################################################################
#
# CIF file generated by modified CIFWriter class 
# in pymatgen (v2025.03.10) https://pymatgen.org/
#
###############################################################################################
data_MACE-OFF23(L)_af81aa39ca46b09
_symmetry_space_group_name_H-M   P2_1/c
_cell_length_a   7.56372470
_cell_length_b   13.01396285
_cell_length_c   8.59676967
_cell_angle_alpha   90.00000000
_cell_angle_beta   103.83881015
_cell_angle_gamma   90.00000000
_symmetry_Int_Tables_number   14
_chemical_formula_moiety   'C9 H8 O4'
_chemical_formula_sum   'H32 C36 O16'
_cell_volume   821.65119153
_cell_formula_units_Z   4
loop_
 _symmetry_equiv_pos_site_id
 _symmetry_equiv_pos_as_xyz
  1  'x, y, z'
  2  '-x, -y, -z'
  3  '-x, y+1/2, -z+1/2'
  4  'x, -y+1/2, z+1/2'
loop_
 _atom_site_type_symbol
 _atom_site_label
 _atom_site_symmetry_multiplicity
 _atom_site_fract_x
 _atom_site_fract_y
 _atom_site_fract_z
 _atom_site_occupancy
  H  H0  4  -0.33058823  0.26530905  0.59439806  1
  H  H1  4  -0.32945956  0.40537762  0.21833974  1
  H  H2  4  -0.04121063  0.35653375  0.60942671  1
  H  H3  4  -0.03789592  0.48318705  0.35891638  1
  H  H4  4  0.37136551  0.84078972  0.65668888  1
  H  H5  4  0.42286691  0.54048865  0.07670356  1
  H  H6  4  0.45255189  0.91640074  0.04227655  1
  H  H7  4  0.49917564  0.56738162  0.28417037  1
  C  C8  4  -0.20343220  0.23074488  0.65592888  1
  C  C9  4  -0.20308272  0.13468965  0.72559832  1
  C  C10  4  -0.04131207  0.21787391  0.16433455  1
  C  C11  4  -0.03965138  0.40884525  0.30363067  1
  C  C12  4  0.12210435  0.26191947  0.24220293  1
  C  C13  4  0.12542165  0.14149121  0.81327083  1
  C  C14  4  0.29128689  0.41468132  0.39686371  1
  C  C15  4  0.35498184  0.14608151  0.36084173  1
  C  C16  4  0.47390796  0.59957570  0.16464702  1
  O  O17  4  0.27978746  0.29059880  0.73637965  1
  O  O18  4  0.28209480  0.49984729  0.45530970  1
  O  O19  4  0.28767471  0.13190753  0.47200301  1
  O  O20  4  0.44856384  0.36908766  0.40443187  1
