###############################################################################################
#
# CIF file generated by modified CIFWriter class 
# in pymatgen (v2025.03.10) https://pymatgen.org/
#
###############################################################################################
data_MACE-OFF23(L)_afdaea154b75e77
_symmetry_space_group_name_H-M   P4_2
_cell_length_a   13.56682679
_cell_length_b   13.56682679
_cell_length_c   4.94270030
_cell_angle_alpha   90.00000000
_cell_angle_beta   90.00000000
_cell_angle_gamma   90.00000000
_symmetry_Int_Tables_number   77
_chemical_formula_moiety   'C9 H8 O4'
_chemical_formula_sum   'H32 C36 O16'
_cell_volume   909.74743244
_cell_formula_units_Z   4
loop_
 _symmetry_equiv_pos_site_id
 _symmetry_equiv_pos_as_xyz
  1  'x, y, z'
  2  '-y, x, z+1/2'
  3  '-x, -y, z'
  4  'y, -x, z+1/2'
loop_
 _atom_site_type_symbol
 _atom_site_label
 _atom_site_symmetry_multiplicity
 _atom_site_fract_x
 _atom_site_fract_y
 _atom_site_fract_z
 _atom_site_occupancy
  H  H0  4  -0.06368284  0.72968476  0.25606168  1
  H  H1  4  -0.03722588  0.60857876  -0.10385080  1
  H  H2  4  0.11259569  0.11990194  1.37173614  1
  H  H3  4  0.13216044  0.54817096  -0.20050151  1
  H  H4  4  0.18647050  0.42184111  1.13278696  1
  H  H5  4  0.21343344  0.34664413  1.41164562  1
  H  H6  4  0.27171947  0.61028099  0.06856175  1
  H  H7  4  0.29003640  0.44969114  1.34123486  1
  C  C8  4  0.00969208  0.70301678  0.21606386  1
  C  C9  4  0.02465474  0.63434128  0.01356638  1
  C  C10  4  0.06502605  0.81608645  0.57696280  1
  C  C11  4  0.08820603  0.74065940  0.36579453  1
  C  C12  4  0.11899951  0.60071797  -0.04014985  1
  C  C13  4  0.18284249  0.70625199  0.30592737  1
  C  C14  4  0.19804146  0.63598700  0.10807250  1
  C  C15  4  0.24626404  0.39134284  1.25212297  1
  C  C16  4  0.30913839  0.32490084  1.08367656  1
  O  O17  4  -0.01426673  0.85664166  0.59772054  1
  O  O18  4  0.13769006  0.83354884  0.74846153  1
  O  O19  4  0.25151799  0.26384494  0.93305774  1
  O  O20  4  0.32196800  0.60252157  0.58389705  1
