###############################################################################################
#
# CIF file generated by modified CIFWriter class 
# in pymatgen (v2025.03.10) https://pymatgen.org/
#
###############################################################################################
data_MACE-OFF23(L)_affcbf880c38a3b
_symmetry_space_group_name_H-M   Pca2_1
_cell_length_a   17.60600175
_cell_length_b   5.13095268
_cell_length_c   8.96843569
_cell_angle_alpha   90.00000000
_cell_angle_beta   90.00000000
_cell_angle_gamma   90.00000000
_symmetry_Int_Tables_number   29
_chemical_formula_moiety   'C9 H8 O4'
_chemical_formula_sum   'H32 C36 O16'
_cell_volume   810.16867733
_cell_formula_units_Z   4
loop_
 _symmetry_equiv_pos_site_id
 _symmetry_equiv_pos_as_xyz
  1  'x, y, z'
  2  '-x, -y, z+1/2'
  3  '-x+1/2, y, z+1/2'
  4  'x+1/2, -y, z'
loop_
 _atom_site_type_symbol
 _atom_site_label
 _atom_site_symmetry_multiplicity
 _atom_site_fract_x
 _atom_site_fract_y
 _atom_site_fract_z
 _atom_site_occupancy
  H  H0  4  -0.12065519  0.22962639  0.04071325  1
  H  H1  4  -0.07980746  0.57028346  0.22034671  1
  H  H2  4  -0.02857847  -0.09790457  -0.04813929  1
  H  H3  4  0.05080865  0.56185817  0.31849176  1
  H  H4  4  0.19787824  -0.47912273  -0.05757284  1
  H  H5  4  0.22297220  -0.32541695  -0.22878818  1
  H  H6  4  0.23266901  -0.23117577  0.43874580  1
  H  H7  4  0.23310904  0.17293886  0.73039078  1
  C  C8  4  -0.06273538  0.23607202  0.07986032  1
  C  C9  4  -0.04030750  0.42474686  0.18151445  1
  C  C10  4  -0.01134171  0.05272143  0.02838078  1
  C  C11  4  0.03324654  0.42212096  0.23553034  1
  C  C12  4  0.06260572  0.05927456  0.07920438  1
  C  C13  4  0.08567765  0.23835994  0.18605488  1
  C  C14  4  0.15720981  -0.08737858  -0.08498865  1
  C  C15  4  0.16114497  0.22751812  0.26156788  1
  C  C16  4  0.21413803  -0.29755556  -0.10995116  1
  O  O17  4  0.11245391  -0.13692515  0.03309359  1
  O  O18  4  0.15149571  0.10885732  -0.15887211  1
  O  O19  4  0.16732024  0.25514293  0.39498787  1
  O  O20  4  0.21966914  0.18468496  0.17128678  1
