###############################################################################################
#
# CIF file generated by modified CIFWriter class 
# in pymatgen (v2025.03.10) https://pymatgen.org/
#
###############################################################################################
data_MACE-OFF23(L)_b29941649e2b9e0
_symmetry_space_group_name_H-M   P4_1
_cell_length_a   7.94690462
_cell_length_b   7.94690462
_cell_length_c   13.39628453
_cell_angle_alpha   90.00000000
_cell_angle_beta   90.00000000
_cell_angle_gamma   90.00000000
_symmetry_Int_Tables_number   76
_chemical_formula_moiety   'C9 H8 O4'
_chemical_formula_sum   'H32 C36 O16'
_cell_volume   846.01948199
_cell_formula_units_Z   4
loop_
 _symmetry_equiv_pos_site_id
 _symmetry_equiv_pos_as_xyz
  1  'x, y, z'
  2  '-y, x, z+1/4'
  3  '-x, -y, z+1/2'
  4  'y, -x, z+3/4'
loop_
 _atom_site_type_symbol
 _atom_site_label
 _atom_site_symmetry_multiplicity
 _atom_site_fract_x
 _atom_site_fract_y
 _atom_site_fract_z
 _atom_site_occupancy
  H  H0  4  -0.22869951  0.44946369  0.89906523  1
  H  H1  4  -0.11850298  0.15735737  0.90285024  1
  H  H2  4  0.05981809  0.42828615  0.08957332  1
  H  H3  4  0.10444441  0.81907549  0.61846693  1
  H  H4  4  0.10654090  -0.12381773  0.01417613  1
  H  H5  4  0.11099847  0.59119292  0.17650848  1
  H  H6  4  0.18448819  0.59972818  0.05214609  1
  H  H7  4  0.34209247  0.62347390  0.58820277  1
  C  C8  4  -0.09663669  0.42446059  0.88647872  1
  C  C9  4  -0.05106035  0.73339763  0.86232520  1
  C  C10  4  -0.03511170  0.26133091  0.88750335  1
  C  C11  4  0.01304317  0.55732787  0.86847396  1
  C  C12  4  0.13402363  0.23181626  0.86843868  1
  C  C13  4  0.15518171  0.51656550  0.11404459  1
  C  C14  4  0.18302705  0.52645877  0.85340379  1
  C  C15  4  0.24443410  0.36371912  0.85126053  1
  C  C16  4  0.31349254  0.42741777  0.14241788  1
  O  O17  4  -0.08835337  0.77586511  0.76906613  1
  O  O18  4  -0.06908658  0.82854211  0.93194204  1
  O  O19  4  0.28405994  0.66651830  0.83732152  1
  O  O20  4  0.41239247  0.47247823  0.20455339  1
