###############################################################################################
#
# CIF file generated by modified CIFWriter class 
# in pymatgen (v2025.03.10) https://pymatgen.org/
#
###############################################################################################
data_MACE-OFF23(L)_b2d6f25be73bafc
_symmetry_space_group_name_H-M   P2_12_12_1
_cell_length_a   14.32944346
_cell_length_b   8.13242496
_cell_length_c   6.83540640
_cell_angle_alpha   90.00000000
_cell_angle_beta   90.00000000
_cell_angle_gamma   90.00000000
_symmetry_Int_Tables_number   19
_chemical_formula_moiety   'C9 H8 O4'
_chemical_formula_sum   'H32 C36 O16'
_cell_volume   796.55125913
_cell_formula_units_Z   4
loop_
 _symmetry_equiv_pos_site_id
 _symmetry_equiv_pos_as_xyz
  1  'x, y, z'
  2  'x+1/2, -y+1/2, -z'
  3  '-x+1/2, -y, z+1/2'
  4  '-x, y+1/2, -z+1/2'
loop_
 _atom_site_type_symbol
 _atom_site_label
 _atom_site_symmetry_multiplicity
 _atom_site_fract_x
 _atom_site_fract_y
 _atom_site_fract_z
 _atom_site_occupancy
  H  H0  4  -0.01253177  1.00988311  0.89255874  1
  H  H1  4  0.00248768  0.79398152  0.92982273  1
  H  H2  4  0.05654297  0.68078318  0.32815906  1
  H  H3  4  0.08864730  0.93157454  1.00837552  1
  H  H4  4  0.10008965  0.29627586  -0.14989507  1
  H  H5  4  0.14820247  0.61048450  0.03364700  1
  H  H6  4  0.17014654  0.06251110  0.39918617  1
  H  H7  4  0.17908657  0.37981823  -0.45556057  1
  C  C8  4  0.03697527  0.90914738  0.89462153  1
  C  C9  4  0.08610889  0.90156459  0.70280731  1
  C  C10  4  0.13180238  0.68501756  0.33103915  1
  C  C11  4  0.17115960  0.20644123  0.18226135  1
  C  C12  4  0.17510913  0.30273902  -0.15724650  1
  C  C13  4  0.17754737  0.73087417  0.50036933  1
  C  C14  4  0.18369859  0.64614075  0.16626806  1
  C  C15  4  0.21966612  0.34905817  -0.32778426  1
  C  C16  4  0.22574976  0.26007814  0.00859222  1
  O  O17  4  0.09184242  1.01337195  0.58717178  1
  O  O18  4  0.09298517  0.25503316  0.21478540  1
  O  O19  4  0.12498289  0.75301674  0.67058739  1
  O  O20  4  0.21323842  0.09407759  0.29307723  1
