###############################################################################################
#
# CIF file generated by modified CIFWriter class 
# in pymatgen (v2025.03.10) https://pymatgen.org/
#
###############################################################################################
data_MACE-OFF23(L)_b5378e7684f524
_symmetry_space_group_name_H-M   Pna2_1
_cell_length_a   8.85017658
_cell_length_b   14.67603320
_cell_length_c   6.53485913
_cell_angle_alpha   90.00000000
_cell_angle_beta   90.00000000
_cell_angle_gamma   90.00000000
_symmetry_Int_Tables_number   33
_chemical_formula_moiety   'C9 H8 O4'
_chemical_formula_sum   'H32 C36 O16'
_cell_volume   848.78334980
_cell_formula_units_Z   4
loop_
 _symmetry_equiv_pos_site_id
 _symmetry_equiv_pos_as_xyz
  1  'x, y, z'
  2  '-x, -y, z+1/2'
  3  '-x+1/2, y+1/2, z+1/2'
  4  'x+1/2, -y+1/2, z'
loop_
 _atom_site_type_symbol
 _atom_site_label
 _atom_site_symmetry_multiplicity
 _atom_site_fract_x
 _atom_site_fract_y
 _atom_site_fract_z
 _atom_site_occupancy
  H  H0  4  -0.17569367  0.96241564  0.12931884  1
  H  H1  4  -0.12512427  0.79716172  0.13265778  1
  H  H2  4  -0.08930334  0.59369290  0.49245770  1
  H  H3  4  -0.07651152  0.66062242  0.71629456  1
  H  H4  4  0.04734238  0.68209283  0.50259097  1
  H  H5  4  0.08590436  1.21705115  0.10296756  1
  H  H6  4  0.13658220  0.74075069  0.09906000  1
  H  H7  4  0.15215123  0.35270216  0.56130643  1
  C  C8  4  -0.06167576  0.93724558  0.11627107  1
  C  C9  4  -0.03282956  0.84467565  0.11660223  1
  C  C10  4  -0.01238532  0.63066997  0.59188782  1
  C  C11  4  0.01214242  1.09806699  0.09611485  1
  C  C12  4  0.05557569  0.99996839  0.09626981  1
  C  C13  4  0.10273081  0.56732553  0.67936554  1
  C  C14  4  0.11436534  0.81321821  0.09896976  1
  C  C15  4  0.20251094  0.96704140  0.07444710  1
  C  C16  4  0.23206443  0.87462893  0.07815256  1
  O  O17  4  -0.11696608  1.12415236  0.09176274  1
  O  O18  4  0.12814838  0.55429109  0.85704645  1
  O  O19  4  0.12861572  1.15650872  0.10151920  1
  O  O20  4  0.17834260  0.52428003  0.52610970  1
