###############################################################################################
#
# CIF file generated by modified CIFWriter class 
# in pymatgen (v2025.03.10) https://pymatgen.org/
#
###############################################################################################
data_MACE-OFF23(L)_b69eafd29df9396
_symmetry_space_group_name_H-M   Cc
_cell_length_a   13.35017652
_cell_length_b   8.63522134
_cell_length_c   7.42745929
_cell_angle_alpha   90.00000000
_cell_angle_beta   93.56424031
_cell_angle_gamma   90.00000000
_symmetry_Int_Tables_number   9
_chemical_formula_moiety   'C9 H8 O4'
_chemical_formula_sum   'H32 C36 O16'
_cell_volume   854.59412481
_cell_formula_units_Z   4
loop_
 _symmetry_equiv_pos_site_id
 _symmetry_equiv_pos_as_xyz
  1  'x, y, z'
  2  'x, -y, z+1/2'
  3  'x+1/2, y+1/2, z'
  4  'x+1/2, -y+1/2, z+1/2'
loop_
 _atom_site_type_symbol
 _atom_site_label
 _atom_site_symmetry_multiplicity
 _atom_site_fract_x
 _atom_site_fract_y
 _atom_site_fract_z
 _atom_site_occupancy
  H  H0  4  0.18080960  0.23364711  0.79850597  1
  H  H1  4  0.33749163  0.26403224  1.35952962  1
  H  H2  4  0.34517019  0.53725522  0.80726911  1
  H  H3  4  0.42223195  0.00196668  0.57452644  1
  H  H4  4  0.42713098  0.38078468  1.48137529  1
  H  H5  4  0.60057561  0.05525865  0.52450540  1
  H  H6  4  0.60882811  0.61559553  0.45628573  1
  H  H7  4  0.69045186  0.74216386  0.20818861  1
  C  C8  4  0.30624485  0.13107054  0.80099763  1
  C  C9  4  0.38870465  0.63837364  0.85067365  1
  C  C10  4  0.41579181  0.83964750  0.29132017  1
  C  C11  4  0.46307425  0.68012578  0.71712204  1
  C  C12  4  0.46458368  0.08343335  0.65814709  1
  C  C13  4  0.47020093  0.73711690  0.40403140  1
  C  C14  4  0.56398677  0.11462151  0.63008380  1
  C  C15  4  0.56836785  0.69982769  0.37317735  1
  C  C16  4  0.61453872  0.22632661  0.73410874  1
  O  O17  4  0.25222563  0.25992720  0.80789142  1
  O  O18  4  0.26965222  0.99725553  0.29340220  1
  O  O19  4  0.41990859  0.67649543  0.54668800  1
  O  O20  4  0.54877749  0.71704704  0.75153813  1
