###############################################################################################
#
# CIF file generated by modified CIFWriter class 
# in pymatgen (v2025.03.10) https://pymatgen.org/
#
###############################################################################################
data_MACE-OFF23(L)_b7b0dab3883da16
_symmetry_space_group_name_H-M   P4_3
_cell_length_a   10.59159340
_cell_length_b   10.59159340
_cell_length_c   7.96692551
_cell_angle_alpha   90.00000000
_cell_angle_beta   90.00000000
_cell_angle_gamma   90.00000000
_symmetry_Int_Tables_number   78
_chemical_formula_moiety   'C9 H8 O4'
_chemical_formula_sum   'H32 C36 O16'
_cell_volume   893.74444915
_cell_formula_units_Z   4
loop_
 _symmetry_equiv_pos_site_id
 _symmetry_equiv_pos_as_xyz
  1  'x, y, z'
  2  '-y, x, z+3/4'
  3  '-x, -y, z+1/2'
  4  'y, -x, z+1/4'
loop_
 _atom_site_type_symbol
 _atom_site_label
 _atom_site_symmetry_multiplicity
 _atom_site_fract_x
 _atom_site_fract_y
 _atom_site_fract_z
 _atom_site_occupancy
  H  H0  4  -0.28781649  0.53478227  0.45117943  1
  H  H1  4  -0.25355274  0.65123815  0.29986916  1
  H  H2  4  -0.21231510  0.48947659  0.26332639  1
  H  H3  4  -0.03355155  0.79981143  0.76879770  1
  H  H4  4  0.06430301  0.63605709  0.08711007  1
  H  H5  4  0.15043974  0.17230227  0.65102985  1
  H  H6  4  0.20375546  0.37150800  0.50040658  1
  H  H7  4  0.30017571  0.36178374  0.22145444  1
  C  C8  4  -0.22026445  0.56432640  0.35601099  1
  C  C9  4  -0.09512309  0.58076071  0.43794057  1
  C  C10  4  0.04994308  0.72663701  0.54647885  1
  C  C11  4  0.05373289  0.78007908  0.70444761  1
  C  C12  4  0.16047431  0.70003048  0.45866365  1
  C  C13  4  0.16173850  0.64676821  0.28585664  1
  C  C14  4  0.16963689  0.80596642  0.77841300  1
  C  C15  4  0.22397185  0.28077187  0.44513587  1
  C  C16  4  0.27562292  0.72248083  0.53672645  1
  O  O17  4  -0.06892556  0.70145245  0.47813241  1
  O  O18  4  -0.02219964  0.49575558  0.46828336  1
  O  O19  4  0.06836987  0.68862606  0.18865435  1
  O  O20  4  0.24227240  0.57472977  0.23675413  1
