###############################################################################################
#
# CIF file generated by modified CIFWriter class 
# in pymatgen (v2025.03.10) https://pymatgen.org/
#
###############################################################################################
data_MACE-OFF23(L)_ba2fb056ec73656
_symmetry_space_group_name_H-M   P2_1/c
_cell_length_a   10.32628431
_cell_length_b   5.79903445
_cell_length_c   13.45803431
_cell_angle_alpha   90.00000000
_cell_angle_beta   85.56434235
_cell_angle_gamma   90.00000000
_symmetry_Int_Tables_number   14
_chemical_formula_moiety   'C9 H8 O4'
_chemical_formula_sum   'H32 C36 O16'
_cell_volume   803.48662746
_cell_formula_units_Z   4
loop_
 _symmetry_equiv_pos_site_id
 _symmetry_equiv_pos_as_xyz
  1  'x, y, z'
  2  '-x, -y, -z'
  3  '-x, y+1/2, -z+1/2'
  4  'x, -y+1/2, z+1/2'
loop_
 _atom_site_type_symbol
 _atom_site_label
 _atom_site_symmetry_multiplicity
 _atom_site_fract_x
 _atom_site_fract_y
 _atom_site_fract_z
 _atom_site_occupancy
  H  H0  4  0.05107651  0.57221610  0.26799534  1
  H  H1  4  0.07050548  0.26700731  0.48989308  1
  H  H2  4  0.12561116  1.20987677  1.11052916  1
  H  H3  4  0.22600663  1.33564534  1.01099721  1
  H  H4  4  0.28727596  0.29325651  0.77106456  1
  H  H5  4  0.35682793  0.51863248  0.10836424  1
  H  H6  4  0.46053236  0.34353634  0.54316975  1
  H  H7  4  0.48651532  -0.29859637  0.69629931  1
  C  C8  4  0.15544656  1.20250495  1.03148458  1
  C  C9  4  0.15713331  0.82510065  0.30688116  1
  C  C10  4  0.20696277  0.96771552  1.00546508  1
  C  C11  4  0.28810702  0.62258694  0.84075489  1
  C  C12  4  0.34442121  0.41448894  0.80992959  1
  C  C13  4  0.35988220  0.77237880  0.89648865  1
  C  C14  4  0.45625279  0.02039948  0.62201833  1
  C  C15  4  0.47149637  0.36339003  0.82833060  1
  C  C16  4  0.48693152  0.72414464  0.91354295  1
  O  O17  4  0.08335522  0.52273414  0.78556653  1
  O  O18  4  0.13374451  0.60286059  0.29778444  1
  O  O19  4  0.16689056  0.71214405  0.54004091  1
  O  O20  4  0.30895618  0.52203214  0.43503482  1
