###############################################################################################
#
# CIF file generated by modified CIFWriter class 
# in pymatgen (v2025.03.10) https://pymatgen.org/
#
###############################################################################################
data_MACE-OFF23(L)_baf0488a36b198f
_symmetry_space_group_name_H-M   P2_1/c
_cell_length_a   8.70641513
_cell_length_b   7.45967715
_cell_length_c   13.55833526
_cell_angle_alpha   90.00000000
_cell_angle_beta   67.33595690
_cell_angle_gamma   90.00000000
_symmetry_Int_Tables_number   14
_chemical_formula_moiety   'C9 H8 O4'
_chemical_formula_sum   'H32 C36 O16'
_cell_volume   812.57599224
_cell_formula_units_Z   4
loop_
 _symmetry_equiv_pos_site_id
 _symmetry_equiv_pos_as_xyz
  1  'x, y, z'
  2  '-x, -y, -z'
  3  '-x, y+1/2, -z+1/2'
  4  'x, -y+1/2, z+1/2'
loop_
 _atom_site_type_symbol
 _atom_site_label
 _atom_site_symmetry_multiplicity
 _atom_site_fract_x
 _atom_site_fract_y
 _atom_site_fract_z
 _atom_site_occupancy
  H  H0  4  -0.19285542  0.64545780  0.19025784  1
  H  H1  4  -0.12145148  0.59471439  0.05395577  1
  H  H2  4  -0.06692228  0.45547967  0.14249134  1
  H  H3  4  0.01069732  0.41984302  0.67596778  1
  H  H4  4  0.18169930  0.15081572  0.67062061  1
  H  H5  4  0.41344131  0.87112542  0.31103565  1
  H  H6  4  0.44759933  1.39311280  0.01915991  1
  H  H7  4  0.45617526  0.67573845  0.62760674  1
  C  C8  4  -0.08786625  0.59190250  0.12297746  1
  C  C9  4  0.06065925  0.70577255  0.10678453  1
  C  C10  4  0.12889210  0.39906334  0.61065574  1
  C  C11  4  0.18427319  0.52286571  0.52853857  1
  C  C12  4  0.22373902  0.24901867  0.60714690  1
  C  C13  4  0.33254032  0.49738414  0.44081878  1
  C  C14  4  0.37285622  0.22219772  0.52088416  1
  C  C15  4  0.40336937  0.62477302  0.35001087  1
  C  C16  4  0.42632782  0.34444163  0.43823958  1
  O  O17  4  0.07849616  0.83593935  0.03278684  1
  O  O18  4  0.15295709  0.69347420  0.15350614  1
  O  O19  4  0.35339738  0.79282612  0.37199486  1
  O  O20  4  0.49555485  0.07944588  1.23711227  1
