###############################################################################################
#
# CIF file generated by modified CIFWriter class 
# in pymatgen (v2025.03.10) https://pymatgen.org/
#
###############################################################################################
data_MACE-OFF23(L)_bc18250752c1713
_symmetry_space_group_name_H-M   P2_1/c
_cell_length_a   7.66187823
_cell_length_b   12.08390245
_cell_length_c   9.90028114
_cell_angle_alpha   90.00000000
_cell_angle_beta   93.45172389
_cell_angle_gamma   90.00000000
_symmetry_Int_Tables_number   14
_chemical_formula_moiety   'C9 H8 O4'
_chemical_formula_sum   'H32 C36 O16'
_cell_volume   914.95852244
_cell_formula_units_Z   4
loop_
 _symmetry_equiv_pos_site_id
 _symmetry_equiv_pos_as_xyz
  1  'x, y, z'
  2  '-x, -y, -z'
  3  '-x, y+1/2, -z+1/2'
  4  'x, -y+1/2, z+1/2'
loop_
 _atom_site_type_symbol
 _atom_site_label
 _atom_site_symmetry_multiplicity
 _atom_site_fract_x
 _atom_site_fract_y
 _atom_site_fract_z
 _atom_site_occupancy
  H  H0  4  -0.33365672  0.47578254  0.98561226  1
  H  H1  4  -0.27442408  0.22143283  0.53652219  1
  H  H2  4  -0.14687543  0.57653882  0.83207649  1
  H  H3  4  0.09713587  0.02180855  0.22903394  1
  H  H4  4  0.13848969  0.46634123  0.47301211  1
  H  H5  4  0.40165209  0.75587854  0.23968696  1
  H  H6  4  0.42908861  0.29452326  0.13587649  1
  H  H7  4  0.46509198  0.37249239  0.28534767  1
  C  C8  4  -0.22734695  0.06618898  0.44079292  1
  C  C9  4  -0.19343880  0.32383591  0.97028560  1
  C  C10  4  -0.12244053  0.49027881  0.85453169  1
  C  C11  4  -0.05452393  0.26890410  0.91505766  1
  C  C12  4  -0.02674649  0.15099975  0.95185106  1
  C  C13  4  0.01408245  0.43625857  0.79679498  1
  C  C14  4  0.04747522  0.17341407  0.32727955  1
  C  C15  4  0.34357534  0.21932143  0.31641216  1
  C  C16  4  0.46751201  0.28927948  0.24305344  1
  O  O17  4  -0.14888361  0.09294815  0.98377835  1
  O  O18  4  0.13437882  0.11448028  0.94892127  1
  O  O19  4  0.17746377  0.27248309  0.76025890  1
  O  O20  4  0.37936439  0.33772800  0.91349069  1
