###############################################################################################
#
# CIF file generated by modified CIFWriter class 
# in pymatgen (v2025.03.10) https://pymatgen.org/
#
###############################################################################################
data_MACE-OFF23(L)_be1b44c75a83252
_symmetry_space_group_name_H-M   Pna2_1
_cell_length_a   13.79217684
_cell_length_b   12.65479800
_cell_length_c   5.11134959
_cell_angle_alpha   90.00000000
_cell_angle_beta   90.00000000
_cell_angle_gamma   90.00000000
_symmetry_Int_Tables_number   33
_chemical_formula_moiety   'C9 H8 O4'
_chemical_formula_sum   'H32 C36 O16'
_cell_volume   892.12070612
_cell_formula_units_Z   4
loop_
 _symmetry_equiv_pos_site_id
 _symmetry_equiv_pos_as_xyz
  1  'x, y, z'
  2  '-x, -y, z+1/2'
  3  '-x+1/2, y+1/2, z+1/2'
  4  'x+1/2, -y+1/2, z'
loop_
 _atom_site_type_symbol
 _atom_site_label
 _atom_site_symmetry_multiplicity
 _atom_site_fract_x
 _atom_site_fract_y
 _atom_site_fract_z
 _atom_site_occupancy
  H  H0  4  -0.00232233  0.10523681  0.03317659  1
  H  H1  4  0.03634904  0.18629117  -0.22987111  1
  H  H2  4  0.05181636  0.48934410  -0.03285314  1
  H  H3  4  0.06660639  0.66022257  0.19457718  1
  H  H4  4  0.12370386  0.11898567  -0.04185713  1
  H  H5  4  0.17005351  0.67428650  0.59083528  1
  H  H6  4  0.23186944  0.67832550  1.10080970  1
  H  H7  4  0.24193513  1.01560415  1.24795673  1
  C  C8  4  0.05385846  0.15858132  -0.03377568  1
  C  C9  4  0.05912826  0.25073665  0.14783738  1
  C  C10  4  0.09638866  0.49632506  0.13956700  1
  C  C11  4  0.10481984  0.59209730  0.26917698  1
  C  C12  4  0.14384321  0.40778744  0.23252184  1
  C  C13  4  0.16314602  0.59992281  0.48957751  1
  C  C14  4  0.20263030  0.41385986  0.45361751  1
  C  C15  4  0.21201355  0.51140009  0.57771124  1
  C  C16  4  0.24208433  0.82496206  1.07419102  1
  O  O17  4  0.00440386  0.26987149  0.32396756  1
  O  O18  4  0.13499533  0.31528594  0.08673022  1
  O  O19  4  0.17696677  0.83886405  1.22728616  1
  O  O20  4  0.22845272  0.22810180  0.50306413  1
