###############################################################################################
#
# CIF file generated by modified CIFWriter class 
# in pymatgen (v2025.03.10) https://pymatgen.org/
#
###############################################################################################
data_MACE-OFF23(L)_c3acf53dc78b375
_symmetry_space_group_name_H-M   P2_1/c
_cell_length_a   7.92445646
_cell_length_b   16.27880673
_cell_length_c   6.34416100
_cell_angle_alpha   90.00000000
_cell_angle_beta   94.46911387
_cell_angle_gamma   90.00000000
_symmetry_Int_Tables_number   14
_chemical_formula_moiety   'C9 H8 O4'
_chemical_formula_sum   'H32 C36 O16'
_cell_volume   815.91281704
_cell_formula_units_Z   4
loop_
 _symmetry_equiv_pos_site_id
 _symmetry_equiv_pos_as_xyz
  1  'x, y, z'
  2  '-x, -y, -z'
  3  '-x, y+1/2, -z+1/2'
  4  'x, -y+1/2, z+1/2'
loop_
 _atom_site_type_symbol
 _atom_site_label
 _atom_site_symmetry_multiplicity
 _atom_site_fract_x
 _atom_site_fract_y
 _atom_site_fract_z
 _atom_site_occupancy
  H  H0  4  -0.07883078  0.27427105  0.46624875  1
  H  H1  4  -0.05786793  0.42119108  0.38021297  1
  H  H2  4  0.08711321  -0.14099742  0.69034313  1
  H  H3  4  0.18172277  0.31201981  0.99559813  1
  H  H4  4  0.19729536  -0.14172863  0.45539282  1
  H  H5  4  0.30852709  0.64464645  0.21178640  1
  H  H6  4  0.35270594  0.51299990  0.79439071  1
  H  H7  4  0.45722781  0.25157726  0.43876990  1
  C  C8  4  0.04340259  0.19975618  0.94190755  1
  C  C9  4  0.05333515  0.11711651  0.89293745  1
  C  C10  4  0.18851934  0.25249877  0.45864839  1
  C  C11  4  0.19938322  -0.12033812  0.61716880  1
  C  C12  4  0.20255096  -0.02895111  0.62297670  1
  C  C13  4  0.20794694  0.08292458  0.85827023  1
  C  C14  4  0.34299445  0.21207308  0.92723704  1
  C  C15  4  0.35624564  0.37080989  0.37525698  1
  C  C16  4  0.47158845  0.90041836  0.16936804  1
  O  O17  4  0.19865244  0.48347049  -0.02856620  1
  O  O18  4  0.20795935  0.50145376  0.32230397  1
  O  O19  4  0.34838452  0.85650483  0.14473660  1
  O  O20  4  0.46535903  0.97634520  0.24471008  1
