###############################################################################################
#
# CIF file generated by modified CIFWriter class 
# in pymatgen (v2025.03.10) https://pymatgen.org/
#
###############################################################################################
data_MACE-OFF23(L)_c42b1d726d20033
_symmetry_space_group_name_H-M   P4_3
_cell_length_a   8.13830721
_cell_length_b   8.13830721
_cell_length_c   13.15426391
_cell_angle_alpha   90.00000000
_cell_angle_beta   90.00000000
_cell_angle_gamma   90.00000000
_symmetry_Int_Tables_number   78
_chemical_formula_moiety   'C9 H8 O4'
_chemical_formula_sum   'H32 C36 O16'
_cell_volume   871.23378853
_cell_formula_units_Z   4
loop_
 _symmetry_equiv_pos_site_id
 _symmetry_equiv_pos_as_xyz
  1  'x, y, z'
  2  '-y, x, z+3/4'
  3  '-x, -y, z+1/2'
  4  'y, -x, z+1/4'
loop_
 _atom_site_type_symbol
 _atom_site_label
 _atom_site_symmetry_multiplicity
 _atom_site_fract_x
 _atom_site_fract_y
 _atom_site_fract_z
 _atom_site_occupancy
  H  H0  4  -0.01842626  1.37175362  0.78086007  1
  H  H1  4  -0.00252454  1.07112910  0.80693794  1
  H  H2  4  0.07140315  0.26493715  0.53722756  1
  H  H3  4  0.09888073  0.80377536  0.48065964  1
  H  H4  4  0.12987999  0.82722004  0.61479723  1
  H  H5  4  0.23096239  1.52564796  0.73413574  1
  H  H6  4  0.23361151  0.67307030  0.54440827  1
  H  H7  4  0.24204721  -0.44513045  0.20229694  1
  C  C8  4  -0.42752756  0.52996920  0.46311393  1
  C  C9  4  -0.31688582  0.38813816  0.48519971  1
  C  C10  4  -0.14788597  0.39407055  0.50061436  1
  C  C11  4  -0.05948332  0.25415830  0.52497403  1
  C  C12  4  -0.01509463  0.62062807  0.57298771  1
  C  C13  4  0.09614834  1.30797196  0.77089290  1
  C  C14  4  0.10560532  1.13986114  0.78604272  1
  C  C15  4  0.11893832  0.74094331  0.55232976  1
  C  C16  4  0.23586789  1.39441501  0.74504852  1
  O  O17  4  -0.07630361  0.59388018  0.65495118  1
  O  O18  4  -0.05583390  0.53697173  0.48825899  1
  O  O19  4  0.32158559  -0.36137293  0.22329728  1
  O  O20  4  0.48989007  -0.56917958  0.18803813  1
