###############################################################################################
#
# CIF file generated by modified CIFWriter class 
# in pymatgen (v2025.03.10) https://pymatgen.org/
#
###############################################################################################
data_MACE-OFF23(L)_c47a2b2889f0b23
_symmetry_space_group_name_H-M   P2_1/c
_cell_length_a   9.27629554
_cell_length_b   13.28593211
_cell_length_c   6.39174908
_cell_angle_alpha   90.00000000
_cell_angle_beta   82.72647097
_cell_angle_gamma   90.00000000
_symmetry_Int_Tables_number   14
_chemical_formula_moiety   'C9 H8 O4'
_chemical_formula_sum   'H32 C36 O16'
_cell_volume   781.40725091
_cell_formula_units_Z   4
loop_
 _symmetry_equiv_pos_site_id
 _symmetry_equiv_pos_as_xyz
  1  'x, y, z'
  2  '-x, -y, -z'
  3  '-x, y+1/2, -z+1/2'
  4  'x, -y+1/2, z+1/2'
loop_
 _atom_site_type_symbol
 _atom_site_label
 _atom_site_symmetry_multiplicity
 _atom_site_fract_x
 _atom_site_fract_y
 _atom_site_fract_z
 _atom_site_occupancy
  H  H0  4  -0.10153052  0.82435847  0.10910085  1
  H  H1  4  -0.10139012  0.81894615  -0.16819652  1
  H  H2  4  -0.03578571  0.71619788  -0.02905390  1
  H  H3  4  0.00177927  0.47506442  0.79335311  1
  H  H4  4  0.30610257  0.06808177  0.77457052  1
  H  H5  4  0.33833448  0.26470827  0.44392138  1
  H  H6  4  0.41764083  0.71239305  -0.01232805  1
  H  H7  4  0.48003754  0.46140458  0.82681485  1
  C  C8  4  -0.04316143  0.79758519  -0.03888259  1
  C  C9  4  0.10437082  0.84326202  -0.06132675  1
  C  C10  4  0.20680986  1.00573901  0.29779882  1
  C  C11  4  0.31469521  0.84493347  0.11697932  1
  C  C12  4  0.32855815  0.56362768  0.72042233  1
  C  C13  4  0.41179981  0.09346631  0.80534930  1
  C  C14  4  0.42933252  0.18545159  0.90155935  1
  C  C15  4  0.43381668  0.71582376  0.55965428  1
  C  C16  4  0.46796941  0.53343307  0.75318761  1
  O  O17  4  0.07506276  0.97150583  0.27280439  1
  O  O18  4  0.15176087  0.59332724  0.31287760  1
  O  O19  4  0.18110628  0.69527524  0.58507980  1
  O  O20  4  0.22631756  1.08656283  0.37694799  1
