###############################################################################################
#
# CIF file generated by modified CIFWriter class 
# in pymatgen (v2025.03.10) https://pymatgen.org/
#
###############################################################################################
data_MACE-OFF23(L)_c5784f97a96ee4d
_symmetry_space_group_name_H-M   P4_1
_cell_length_a   15.59659025
_cell_length_b   15.59659025
_cell_length_c   4.22274448
_cell_angle_alpha   90.00000000
_cell_angle_beta   90.00000000
_cell_angle_gamma   90.00000000
_symmetry_Int_Tables_number   76
_chemical_formula_moiety   'C9 H8 O4'
_chemical_formula_sum   'H32 C36 O16'
_cell_volume   1027.19791240
_cell_formula_units_Z   4
loop_
 _symmetry_equiv_pos_site_id
 _symmetry_equiv_pos_as_xyz
  1  'x, y, z'
  2  '-y, x, z+1/4'
  3  '-x, -y, z+1/2'
  4  'y, -x, z+3/4'
loop_
 _atom_site_type_symbol
 _atom_site_label
 _atom_site_symmetry_multiplicity
 _atom_site_fract_x
 _atom_site_fract_y
 _atom_site_fract_z
 _atom_site_occupancy
  H  H0  4  -0.18307470  0.60204046  0.21351479  1
  H  H1  4  -0.13106683  0.73695499  0.45404695  1
  H  H2  4  -0.08748330  0.51897862  -0.13921187  1
  H  H3  4  0.06197816  0.56952717  -0.22927225  1
  H  H4  4  0.11226381  0.87422014  0.57270461  1
  H  H5  4  0.23302865  0.28279448  0.35540810  1
  H  H6  4  0.28409091  0.69483070  -0.21588880  1
  H  H7  4  0.33168123  0.66433982  0.15094827  1
  C  C8  4  -0.11851693  0.62395599  0.16884396  1
  C  C9  4  -0.08957207  0.69924356  0.30456097  1
  C  C10  4  -0.06460431  0.57679590  -0.02640551  1
  C  C11  4  -0.00576797  0.72771369  0.25683998  1
  C  C12  4  0.01866461  0.60406731  -0.07662887  1
  C  C13  4  0.01970190  0.80888291  0.41879113  1
  C  C14  4  0.04766924  0.67798421  0.06794122  1
  C  C15  4  0.19556760  0.66357654  0.14666847  1
  C  C16  4  0.27970909  0.69958261  0.04057216  1
  O  O17  4  -0.03281649  0.85878036  0.52352495  1
  O  O18  4  0.10315956  0.82109680  0.45075704  1
  O  O19  4  0.13077765  0.70438526  -0.00016971  1
  O  O20  4  0.18582324  0.60672477  0.33588256  1
