###############################################################################################
#
# CIF file generated by modified CIFWriter class 
# in pymatgen (v2025.03.10) https://pymatgen.org/
#
###############################################################################################
data_MACE-OFF23(L)_c5dd993ba535597
_symmetry_space_group_name_H-M   P2_12_12_1
_cell_length_a   8.69534800
_cell_length_b   14.68830791
_cell_length_c   6.14202813
_cell_angle_alpha   90.00000000
_cell_angle_beta   90.00000000
_cell_angle_gamma   90.00000000
_symmetry_Int_Tables_number   19
_chemical_formula_moiety   'C9 H8 O4'
_chemical_formula_sum   'H32 C36 O16'
_cell_volume   784.45951894
_cell_formula_units_Z   4
loop_
 _symmetry_equiv_pos_site_id
 _symmetry_equiv_pos_as_xyz
  1  'x, y, z'
  2  '-x, y+1/2, -z+1/2'
  3  '-x+1/2, -y, z+1/2'
  4  'x+1/2, -y+1/2, -z'
loop_
 _atom_site_type_symbol
 _atom_site_label
 _atom_site_symmetry_multiplicity
 _atom_site_fract_x
 _atom_site_fract_y
 _atom_site_fract_z
 _atom_site_occupancy
  H  H0  4  -0.18880376  -0.07704046  -0.04195201  1
  H  H1  4  -0.18326912  0.15825955  -0.21676155  1
  H  H2  4  -0.06863993  0.24925850  -0.13538843  1
  H  H3  4  0.04414426  -0.11464522  0.58182885  1
  H  H4  4  0.10493953  0.21577975  0.47559069  1
  H  H5  4  0.16567399  -0.02253498  0.86953397  1
  H  H6  4  0.19995953  0.14314696  0.81469548  1
  H  H7  4  0.22628967  0.24599473  1.09963304  1
  C  C8  4  -0.17193749  0.21150172  -0.09480939  1
  C  C9  4  -0.15543837  0.16763791  0.12254355  1
  C  C10  4  -0.05528422  -0.06596949  0.19988011  1
  C  C11  4  0.00656476  -0.00287563  0.36822030  1
  C  C12  4  0.02365922  0.09063589  0.34385177  1
  C  C13  4  0.05838604  -0.04237071  0.56107631  1
  C  C14  4  0.09278182  0.14348658  0.50239891  1
  C  C15  4  0.12597757  0.00954194  0.72191764  1
  C  C16  4  0.14441936  0.10253744  0.69149903  1
  O  O17  4  -0.15808661  -0.03006636  0.06375382  1
  O  O18  4  -0.01685706  -0.14501428  0.19059759  1
  O  O19  4  -0.01312524  0.13353747  0.14848995  1
  O  O20  4  0.24538798  0.33866815  0.74042774  1
