###############################################################################################
#
# CIF file generated by modified CIFWriter class 
# in pymatgen (v2025.03.10) https://pymatgen.org/
#
###############################################################################################
data_MACE-OFF23(L)_c72f72ddebcce65
_symmetry_space_group_name_H-M   Pna2_1
_cell_length_a   9.66513975
_cell_length_b   17.68725475
_cell_length_c   4.84655747
_cell_angle_alpha   90.00000000
_cell_angle_beta   90.00000000
_cell_angle_gamma   90.00000000
_symmetry_Int_Tables_number   33
_chemical_formula_moiety   'C9 H8 O4'
_chemical_formula_sum   'H32 C36 O16'
_cell_volume   828.51797658
_cell_formula_units_Z   4
loop_
 _symmetry_equiv_pos_site_id
 _symmetry_equiv_pos_as_xyz
  1  'x, y, z'
  2  '-x, -y, z+1/2'
  3  '-x+1/2, y+1/2, z+1/2'
  4  'x+1/2, -y+1/2, z'
loop_
 _atom_site_type_symbol
 _atom_site_label
 _atom_site_symmetry_multiplicity
 _atom_site_fract_x
 _atom_site_fract_y
 _atom_site_fract_z
 _atom_site_occupancy
  H  H0  4  -0.00414039  0.01069353  0.75025548  1
  H  H1  4  0.05877738  0.74886733  0.50243308  1
  H  H2  4  0.08968081  0.60853263  0.45008600  1
  H  H3  4  0.13473222  0.39167869  0.61105929  1
  H  H4  4  0.13684600  0.36236431  0.96239340  1
  H  H5  4  0.14381287  0.24605786  0.65389054  1
  H  H6  4  0.19271872  0.81671521  0.85653404  1
  H  H7  4  0.20596698  -0.11662049  0.29086343  1
  C  C8  4  0.08479107  0.10281552  0.65972804  1
  C  C9  4  0.12955198  0.71801529  0.63291767  1
  C  C10  4  0.14521652  0.64071991  0.60314370  1
  C  C11  4  0.17204426  0.47908370  0.89634755  1
  C  C12  4  0.18529405  0.13941082  0.46929102  1
  C  C13  4  0.18555539  0.39846644  0.81022453  1
  C  C14  4  0.20308364  0.21728093  0.49744984  1
  C  C15  4  0.20522369  0.75647140  0.83216046  1
  C  C16  4  0.23618943  0.60197132  0.77150311  1
  O  O17  4  0.03343496  0.13516699  0.85329475  1
  O  O18  4  0.05329452  0.03068796  0.60050326  1
  O  O19  4  0.10562283  0.50330133  1.08496838  1
  O  O20  4  0.24764442  0.52482373  0.72549530  1
