###############################################################################################
#
# CIF file generated by modified CIFWriter class 
# in pymatgen (v2025.03.10) https://pymatgen.org/
#
###############################################################################################
data_MACE-OFF23(L)_c86635a425fb844
_symmetry_space_group_name_H-M   Cc
_cell_length_a   14.76652506
_cell_length_b   11.79850502
_cell_length_c   6.69198297
_cell_angle_alpha   90.00000000
_cell_angle_beta   47.96087901
_cell_angle_gamma   90.00000000
_symmetry_Int_Tables_number   9
_chemical_formula_moiety   'C9 H8 O4'
_chemical_formula_sum   'H32 C36 O16'
_cell_volume   865.89731245
_cell_formula_units_Z   4
loop_
 _symmetry_equiv_pos_site_id
 _symmetry_equiv_pos_as_xyz
  1  'x, y, z'
  2  'x, -y, z+1/2'
  3  'x+1/2, y+1/2, z'
  4  'x+1/2, -y+1/2, z+1/2'
loop_
 _atom_site_type_symbol
 _atom_site_label
 _atom_site_symmetry_multiplicity
 _atom_site_fract_x
 _atom_site_fract_y
 _atom_site_fract_z
 _atom_site_occupancy
  H  H0  4  -0.20052063  0.83134920  0.78811072  1
  H  H1  4  -0.15856107  0.93976347  1.35561916  1
  H  H2  4  -0.12543832  0.67688626  0.46295419  1
  H  H3  4  0.03846546  0.44893127  -0.15517476  1
  H  H4  4  0.10191367  0.11887533  0.67379677  1
  H  H5  4  0.12963082  0.41509580  0.04161743  1
  H  H6  4  0.19015471  0.75751549  1.01165366  1
  H  H7  4  0.25243284  0.10477126  0.36751376  1
  C  C8  4  -0.13856382  0.88452068  1.06207804  1
  C  C9  4  -0.12887273  0.77645082  0.73452576  1
  C  C10  4  -0.08704494  0.68937574  0.55271695  1
  C  C11  4  -0.08148981  0.79414550  0.85520095  1
  C  C12  4  0.00481076  0.38068155  -0.01354000  1
  C  C13  4  0.01380921  0.27551077  0.27913043  1
  C  C14  4  0.05590866  0.36256195  0.09761963  1
  C  C15  4  0.12809184  0.16364944  0.33375615  1
  C  C16  4  0.17238334  0.15861457  0.47902456  1
  O  O17  4  -0.20007864  0.96100594  1.08324900  1
  O  O18  4  -0.12331523  0.87356773  1.23439903  1
  O  O19  4  0.06935741  0.73629857  0.88234834  1
  O  O20  4  0.13944506  0.09104335  0.19334256  1
