###############################################################################################
#
# CIF file generated by modified CIFWriter class 
# in pymatgen (v2025.03.10) https://pymatgen.org/
#
###############################################################################################
data_MACE-OFF23(L)_c8940731c262cbf
_symmetry_space_group_name_H-M   P2/c
_cell_length_a   7.27626526
_cell_length_b   7.10197402
_cell_length_c   18.15703998
_cell_angle_alpha   90.00000000
_cell_angle_beta   68.91972488
_cell_angle_gamma   90.00000000
_symmetry_Int_Tables_number   13
_chemical_formula_moiety   'C9 H8 O4'
_chemical_formula_sum   'H32 C36 O16'
_cell_volume   875.48826409
_cell_formula_units_Z   4
loop_
 _symmetry_equiv_pos_site_id
 _symmetry_equiv_pos_as_xyz
  1  'x, y, z'
  2  '-x, -y, -z'
  3  '-x, y, -z+1/2'
  4  'x, -y, z+1/2'
loop_
 _atom_site_type_symbol
 _atom_site_label
 _atom_site_symmetry_multiplicity
 _atom_site_fract_x
 _atom_site_fract_y
 _atom_site_fract_z
 _atom_site_occupancy
  H  H0  4  -0.02994834  0.74428957  1.05288900  1
  H  H1  4  -0.02470714  0.88383493  1.17764198  1
  H  H2  4  0.10322860  0.47704184  0.33270550  1
  H  H3  4  0.20995538  0.37996627  0.15180118  1
  H  H4  4  0.29646836  0.06644695  0.69493369  1
  H  H5  4  0.29812125  0.35886993  0.25694371  1
  H  H6  4  0.34718322  0.54740515  0.31210247  1
  H  H7  4  0.39553664  0.14397497  -0.08578760  1
  C  C8  4  0.10647473  0.76828132  1.06217458  1
  C  C9  4  0.11191896  0.15478979  0.63143824  1
  C  C10  4  0.25425447  0.57378956  0.81418493  1
  C  C11  4  0.26860751  0.28750009  0.37392033  1
  C  C12  4  0.28054423  0.28033605  0.50255219  1
  C  C13  4  0.29088105  0.87402679  1.14098641  1
  C  C14  4  0.34231920  0.28998354  0.05101212  1
  C  C15  4  0.46223995  0.75193661  1.00996323  1
  C  C16  4  0.46435644  0.17073791  0.58018756  1
  O  O17  4  0.18797595  0.26738701  0.04162231  1
  O  O18  4  0.26661306  0.37992715  0.43915636  1
  O  O19  4  0.28141625  0.11991302  0.36602790  1
  O  O20  4  0.34597080  0.35598783  0.11994930  1
