###############################################################################################
#
# CIF file generated by modified CIFWriter class 
# in pymatgen (v2025.03.10) https://pymatgen.org/
#
###############################################################################################
data_MACE-OFF23(L)_cbb1129be5ff561
_symmetry_space_group_name_H-M   P2_12_12
_cell_length_a   6.56351686
_cell_length_b   9.22621946
_cell_length_c   14.18028667
_cell_angle_alpha   90.00000000
_cell_angle_beta   90.00000000
_cell_angle_gamma   90.00000000
_symmetry_Int_Tables_number   18
_chemical_formula_moiety   'C9 H8 O4'
_chemical_formula_sum   'H32 C36 O16'
_cell_volume   858.70777749
_cell_formula_units_Z   4
loop_
 _symmetry_equiv_pos_site_id
 _symmetry_equiv_pos_as_xyz
  1  'x, y, z'
  2  '-x, -y, z'
  3  'x+1/2, -y+1/2, -z'
  4  '-x+1/2, y+1/2, -z'
loop_
 _atom_site_type_symbol
 _atom_site_label
 _atom_site_symmetry_multiplicity
 _atom_site_fract_x
 _atom_site_fract_y
 _atom_site_fract_z
 _atom_site_occupancy
  H  H0  4  -0.14097816  0.88920042  0.57979458  1
  H  H1  4  -0.02935815  0.87598634  0.90872225  1
  H  H2  4  0.09367326  0.63139193  0.39182780  1
  H  H3  4  0.11209142  0.71934800  1.03527367  1
  H  H4  4  0.16615996  -0.07226530  0.17543510  1
  H  H5  4  0.21378642  -0.00892878  0.00796804  1
  H  H6  4  0.22365279  0.13790577  0.44838003  1
  H  H7  4  0.22612218  0.46951367  0.36302198  1
  C  C8  4  -0.20484812  0.84947046  0.72361282  1
  C  C9  4  0.05689528  0.78028978  0.89187428  1
  C  C10  4  0.08286421  0.74313617  0.79832773  1
  C  C11  4  0.13394033  0.69130188  0.96198742  1
  C  C12  4  0.19032971  0.61905971  0.77297929  1
  C  C13  4  0.22799126  0.57320444  0.67392048  1
  C  C14  4  0.23376018  0.56418124  0.93785322  1
  C  C15  4  0.23906672  0.58661236  0.36990948  1
  C  C16  4  0.23969905  0.02783923  0.15589588  1
  O  O17  4  0.00089160  0.82720831  0.72721737  1
  O  O18  4  0.18120352  0.67688985  0.21276948  1
  O  O19  4  0.23860802  0.44794648  0.64935938  1
  O  O20  4  0.24267713  0.18215745  0.38727949  1
