###############################################################################################
#
# CIF file generated by modified CIFWriter class 
# in pymatgen (v2025.03.10) https://pymatgen.org/
#
###############################################################################################
data_MACE-OFF23(L)_cf552df828ce5d5
_symmetry_space_group_name_H-M   P2_1/c
_cell_length_a   5.54850661
_cell_length_b   12.38215670
_cell_length_c   13.02638248
_cell_angle_alpha   90.00000000
_cell_angle_beta   66.14113823
_cell_angle_gamma   90.00000000
_symmetry_Int_Tables_number   14
_chemical_formula_moiety   'C9 H8 O4'
_chemical_formula_sum   'H32 C36 O16'
_cell_volume   818.46690588
_cell_formula_units_Z   4
loop_
 _symmetry_equiv_pos_site_id
 _symmetry_equiv_pos_as_xyz
  1  'x, y, z'
  2  '-x, -y, -z'
  3  '-x, y+1/2, -z+1/2'
  4  'x, -y+1/2, z+1/2'
loop_
 _atom_site_type_symbol
 _atom_site_label
 _atom_site_symmetry_multiplicity
 _atom_site_fract_x
 _atom_site_fract_y
 _atom_site_fract_z
 _atom_site_occupancy
  H  H0  4  -0.32880223  0.32852047  0.31674579  1
  H  H1  4  -0.20571485  0.15751766  0.97966295  1
  H  H2  4  -0.09122340  0.20137300  0.16415542  1
  H  H3  4  0.13691554  0.27886895  0.99137942  1
  H  H4  4  0.27060214  1.03311932  0.62576784  1
  H  H5  4  0.36984605  0.35250616  0.18042261  1
  H  H6  4  0.39174000  1.01145636  0.93723679  1
  H  H7  4  0.48636349  0.62293949  0.96524474  1
  C  C8  4  -0.17582709  0.22185261  0.82197336  1
  C  C9  4  -0.10742418  0.28573051  0.41287956  1
  C  C10  4  -0.04286754  0.20668558  0.23617826  1
  C  C11  4  0.08685167  0.28051797  0.91968891  1
  C  C12  4  0.15802832  0.35870821  0.73969553  1
  C  C13  4  0.21455026  0.35324973  0.83489845  1
  C  C14  4  0.30652329  0.42428537  0.63811255  1
  C  C15  4  0.34647014  -0.02377688  0.36968849  1
  C  C16  4  0.43599292  1.08431777  0.61685731  1
  O  O17  4  0.14210084  0.56202455  0.87566540  1
  O  O18  4  0.24036046  0.42775483  0.55918404  1
  O  O19  4  0.40384670  0.08276669  0.34908449  1
  O  O20  4  0.48147012  0.97383165  0.86376970  1
