###############################################################################################
#
# CIF file generated by modified CIFWriter class 
# in pymatgen (v2025.03.10) https://pymatgen.org/
#
###############################################################################################
data_MACE-OFF23(L)_d04cef92033d6db
_symmetry_space_group_name_H-M   Pna2_1
_cell_length_a   10.05477316
_cell_length_b   18.81836946
_cell_length_c   4.37663613
_cell_angle_alpha   90.00000000
_cell_angle_beta   90.00000000
_cell_angle_gamma   90.00000000
_symmetry_Int_Tables_number   33
_chemical_formula_moiety   'C9 H8 O4'
_chemical_formula_sum   'H32 C36 O16'
_cell_volume   828.12273719
_cell_formula_units_Z   4
loop_
 _symmetry_equiv_pos_site_id
 _symmetry_equiv_pos_as_xyz
  1  'x, y, z'
  2  '-x, -y, z+1/2'
  3  '-x+1/2, y+1/2, z+1/2'
  4  'x+1/2, -y+1/2, z'
loop_
 _atom_site_type_symbol
 _atom_site_label
 _atom_site_symmetry_multiplicity
 _atom_site_fract_x
 _atom_site_fract_y
 _atom_site_fract_z
 _atom_site_occupancy
  H  H0  4  -0.04204237  0.74106149  0.24013371  1
  H  H1  4  -0.00516806  0.50770470  0.27227233  1
  H  H2  4  0.07185122  0.84555502  0.45607384  1
  H  H3  4  0.07548500  -0.02470029  0.42768133  1
  H  H4  4  0.19095044  0.20554299  0.50522338  1
  H  H5  4  0.22015637  -0.05600124  0.24237244  1
  H  H6  4  0.23415298  -0.01643720  0.60698460  1
  H  H7  4  0.24434707  0.32755760  0.33153817  1
  C  C8  4  -0.00170046  0.60721812  0.33460700  1
  C  C9  4  0.03482774  0.73457205  0.40917558  1
  C  C10  4  0.06733654  0.66568933  0.49817714  1
  C  C11  4  0.10032281  0.79294503  0.52800240  1
  C  C12  4  0.16604950  0.65702589  0.71824226  1
  C  C13  4  0.18073589  -0.01475802  0.39172663  1
  C  C14  4  0.19846049  0.05515338  0.23602589  1
  C  C15  4  0.20177389  0.78291197  0.73846796  1
  C  C16  4  0.23340180  0.71481788  0.83503036  1
  O  O17  4  -0.07966768  0.61704387  0.12952748  1
  O  O18  4  0.03186749  0.54111539  0.42209512  1
  O  O19  4  0.13006295  0.07843156  0.03461206  1
  O  O20  4  0.19379740  0.59075658  0.84461522  1
