###############################################################################################
#
# CIF file generated by modified CIFWriter class 
# in pymatgen (v2025.03.10) https://pymatgen.org/
#
###############################################################################################
data_MACE-OFF23(L)_d466b479ea027dd
_symmetry_space_group_name_H-M   P2_1/c
_cell_length_a   7.73698168
_cell_length_b   9.54041212
_cell_length_c   12.40819933
_cell_angle_alpha   90.00000000
_cell_angle_beta   85.93669026
_cell_angle_gamma   90.00000000
_symmetry_Int_Tables_number   14
_chemical_formula_moiety   'C9 H8 O4'
_chemical_formula_sum   'H32 C36 O16'
_cell_volume   913.59651173
_cell_formula_units_Z   4
loop_
 _symmetry_equiv_pos_site_id
 _symmetry_equiv_pos_as_xyz
  1  'x, y, z'
  2  '-x, -y, -z'
  3  '-x, y+1/2, -z+1/2'
  4  'x, -y+1/2, z+1/2'
loop_
 _atom_site_type_symbol
 _atom_site_label
 _atom_site_symmetry_multiplicity
 _atom_site_fract_x
 _atom_site_fract_y
 _atom_site_fract_z
 _atom_site_occupancy
  H  H0  4  -0.23513348  0.61836359  0.74378431  1
  H  H1  4  -0.10200645  0.74505744  0.80393718  1
  H  H2  4  -0.04528433  -0.18694791  0.17283022  1
  H  H3  4  0.16497359  0.48918631  0.99214799  1
  H  H4  4  0.34271143  0.80405873  0.73857553  1
  H  H5  4  0.34475142  0.49024533  0.51932373  1
  H  H6  4  0.37273289  0.74324769  0.54500856  1
  H  H7  4  0.37726471  0.33425029  1.07001268  1
  C  C8  4  -0.10352187  -0.15415212  0.25091280  1
  C  C9  4  -0.00102160  -0.03927623  0.29703058  1
  C  C10  4  0.26853691  0.05668734  0.44131967  1
  C  C11  4  0.28470126  0.02477787  0.33247113  1
  C  C12  4  0.38987749  0.35735067  0.98460217  1
  C  C13  4  0.42337401  0.07590417  0.26630719  1
  C  C14  4  0.45137234  0.04458528  0.14910825  1
  C  C15  4  0.45292633  0.84053713  0.68813862  1
  C  C16  4  0.47041726  0.80611048  0.57973559  1
  O  O17  4  -0.05832911  0.43299444  0.83707273  1
  O  O18  4  0.17130690  0.57028126  0.79027706  1
  O  O19  4  0.31057210  0.03180296  0.09657981  1
  O  O20  4  0.40212557  0.53587363  0.39462655  1
