###############################################################################################
#
# CIF file generated by modified CIFWriter class 
# in pymatgen (v2025.03.10) https://pymatgen.org/
#
###############################################################################################
data_MACE-OFF23(L)_d5e5f0aaea689e3
_symmetry_space_group_name_H-M   P2_12_12_1
_cell_length_a   16.27936178
_cell_length_b   4.01585623
_cell_length_c   12.27438129
_cell_angle_alpha   90.00000000
_cell_angle_beta   90.00000000
_cell_angle_gamma   90.00000000
_symmetry_Int_Tables_number   19
_chemical_formula_moiety   'C9 H8 O4'
_chemical_formula_sum   'H32 C36 O16'
_cell_volume   802.44475258
_cell_formula_units_Z   4
loop_
 _symmetry_equiv_pos_site_id
 _symmetry_equiv_pos_as_xyz
  1  'x, y, z'
  2  'x+1/2, -y+1/2, -z'
  3  '-x, y+1/2, -z+1/2'
  4  '-x+1/2, -y, z+1/2'
loop_
 _atom_site_type_symbol
 _atom_site_label
 _atom_site_symmetry_multiplicity
 _atom_site_fract_x
 _atom_site_fract_y
 _atom_site_fract_z
 _atom_site_occupancy
  H  H0  4  0.01499779  -0.04794919  0.59444710  1
  H  H1  4  0.02148681  0.37177980  0.63245505  1
  H  H2  4  0.03337081  0.96852657  0.20444680  1
  H  H3  4  0.04662653  0.78490841  0.39471691  1
  H  H4  4  0.07716216  0.23083558  0.51754159  1
  H  H5  4  0.16629324  0.90914734  -0.09809744  1
  H  H6  4  0.18219947  0.56967754  0.46026006  1
  H  H7  4  0.20013452  0.43233336  0.83564657  1
  C  C8  4  0.05618552  0.16436208  0.59846010  1
  C  C9  4  0.09194618  0.88552232  0.23475443  1
  C  C10  4  0.09942642  0.77893049  0.34152660  1
  C  C11  4  0.12634758  0.09225699  0.67284823  1
  C  C12  4  0.13986419  0.98673883  0.04908987  1
  C  C13  4  0.15830149  0.88303678  0.16313995  1
  C  C14  4  0.17433941  0.66010219  0.37809334  1
  C  C15  4  0.23375347  0.77439583  0.20323957  1
  C  C16  4  0.24118675  0.65770863  0.30849875  1
  O  O17  4  0.08496110  1.17737257  0.02632951  1
  O  O18  4  0.12161414  -0.06602992  0.75629645  1
  O  O19  4  0.18609171  0.84111728  -0.02625222  1
  O  O20  4  0.19708960  0.23037586  0.63628504  1
