###############################################################################################
#
# CIF file generated by modified CIFWriter class 
# in pymatgen (v2025.03.10) https://pymatgen.org/
#
###############################################################################################
data_MACE-OFF23(L)_dbded60c3a45ac3
_symmetry_space_group_name_H-M   P4_1
_cell_length_a   11.21960360
_cell_length_b   11.21960360
_cell_length_c   8.12852676
_cell_angle_alpha   90.00000000
_cell_angle_beta   90.00000000
_cell_angle_gamma   90.00000000
_symmetry_Int_Tables_number   76
_chemical_formula_moiety   'C9 H8 O4'
_chemical_formula_sum   'H32 C36 O16'
_cell_volume   1023.21492444
_cell_formula_units_Z   4
loop_
 _symmetry_equiv_pos_site_id
 _symmetry_equiv_pos_as_xyz
  1  'x, y, z'
  2  '-y, x, z+1/4'
  3  '-x, -y, z+1/2'
  4  'y, -x, z+3/4'
loop_
 _atom_site_type_symbol
 _atom_site_label
 _atom_site_symmetry_multiplicity
 _atom_site_fract_x
 _atom_site_fract_y
 _atom_site_fract_z
 _atom_site_occupancy
  H  H0  4  -0.10086692  0.57268276  0.81514892  1
  H  H1  4  -0.09188805  0.78231950  0.37611565  1
  H  H2  4  -0.02086612  0.64799875  0.97422635  1
  H  H3  4  -0.00952196  0.86240094  0.11495398  1
  H  H4  4  0.04182794  0.52394255  0.87243600  1
  H  H5  4  0.18071625  0.19860634  0.28856575  1
  H  H6  4  0.28543749  0.47685125  0.66138661  1
  H  H7  4  0.29648926  0.32603127  0.47826972  1
  C  C8  4  -0.01407311  0.60241985  0.85722778  1
  C  C9  4  -0.00094146  0.76487045  0.34054675  1
  C  C10  4  0.04365920  0.68084038  0.73195729  1
  C  C11  4  0.04602450  0.80991633  0.19577225  1
  C  C12  4  0.06987573  0.69699702  0.44363933  1
  C  C13  4  0.16369843  0.78736479  0.15396019  1
  C  C14  4  0.18930102  0.67542559  0.40616045  1
  C  C15  4  0.23454137  0.72192908  0.25974639  1
  C  C16  4  0.27315456  0.60386102  0.50864005  1
  O  O17  4  0.01327292  0.64549461  0.57758023  1
  O  O18  4  0.10968402  0.76291171  0.75777233  1
  O  O19  4  0.22259002  0.52362150  0.60558282  1
  O  O20  4  0.38075491  0.61474608  0.50025339  1
