###############################################################################################
#
# CIF file generated by modified CIFWriter class 
# in pymatgen (v2025.03.10) https://pymatgen.org/
#
###############################################################################################
data_MACE-OFF23(L)_de4bbb19c12c18f
_symmetry_space_group_name_H-M   P2/c
_cell_length_a   12.02160026
_cell_length_b   5.77027034
_cell_length_c   15.51639629
_cell_angle_alpha   90.00000000
_cell_angle_beta   103.79582119
_cell_angle_gamma   90.00000000
_symmetry_Int_Tables_number   13
_chemical_formula_moiety   'C9 H8 O4'
_chemical_formula_sum   'H32 C36 O16'
_cell_volume   1045.28897406
_cell_formula_units_Z   4
loop_
 _symmetry_equiv_pos_site_id
 _symmetry_equiv_pos_as_xyz
  1  'x, y, z'
  2  '-x, -y, -z'
  3  '-x, y, -z+1/2'
  4  'x, -y, z+1/2'
loop_
 _atom_site_type_symbol
 _atom_site_label
 _atom_site_symmetry_multiplicity
 _atom_site_fract_x
 _atom_site_fract_y
 _atom_site_fract_z
 _atom_site_occupancy
  H  H0  4  -0.03239407  0.36434994  0.35304123  1
  H  H1  4  0.01435883  0.81053934  0.10271462  1
  H  H2  4  0.08283757  0.87412784  0.26655035  1
  H  H3  4  0.08346771  0.47259799  -0.16775584  1
  H  H4  4  0.08586095  0.77943048  -0.17185089  1
  H  H5  4  0.27982324  -0.00268888  0.82937509  1
  H  H6  4  0.41169270  -0.05622676  0.73114040  1
  H  H7  4  0.42518316  0.88006824  -0.04102941  1
  C  C8  4  0.06015402  0.36922986  0.36126734  1
  C  C9  4  0.10171371  0.85885873  0.13301164  1
  C  C10  4  0.11543873  0.63325578  -0.04185572  1
  C  C11  4  0.14005961  0.89721480  0.22321076  1
  C  C12  4  0.17706078  0.88408272  0.07887593  1
  C  C13  4  0.25151792  0.96926444  0.25919015  1
  C  C14  4  0.28998923  0.04809615  0.61352714  1
  C  C15  4  0.32523503  0.00145481  0.70414706  1
  C  C16  4  0.37841234  0.02580367  0.56136796  1
  O  O17  4  0.13464633  0.85457123  -0.01163467  1
  O  O18  4  0.13931462  0.46663820  0.00522764  1
  O  O19  4  0.35844516  0.86006217  -0.01413400  1
  O  O20  4  0.46615444  -0.08556937  0.58958218  1
