###############################################################################################
#
# CIF file generated by modified CIFWriter class 
# in pymatgen (v2025.03.10) https://pymatgen.org/
#
###############################################################################################
data_MACE-OFF23(L)_e608b82994452b8
_symmetry_space_group_name_H-M   Pnc2
_cell_length_a   14.76702125
_cell_length_b   7.50579147
_cell_length_c   7.51607114
_cell_angle_alpha   90.00000000
_cell_angle_beta   90.00000000
_cell_angle_gamma   90.00000000
_symmetry_Int_Tables_number   30
_chemical_formula_moiety   'C9 H8 O4'
_chemical_formula_sum   'H32 C36 O16'
_cell_volume   833.06766301
_cell_formula_units_Z   4
loop_
 _symmetry_equiv_pos_site_id
 _symmetry_equiv_pos_as_xyz
  1  'x, y, z'
  2  '-x, -y, z'
  3  '-x, y+1/2, z+1/2'
  4  'x, -y+1/2, z+1/2'
loop_
 _atom_site_type_symbol
 _atom_site_label
 _atom_site_symmetry_multiplicity
 _atom_site_fract_x
 _atom_site_fract_y
 _atom_site_fract_z
 _atom_site_occupancy
  H  H0  4  -0.01658889  0.66476271  0.11801221  1
  H  H1  4  0.05217032  0.65749551  0.53613621  1
  H  H2  4  0.05724709  0.62672768  -0.06073676  1
  H  H3  4  0.15757375  0.24353698  0.79812849  1
  H  H4  4  0.27794100  0.48406139  0.32124367  1
  H  H5  4  0.40600523  0.43132071  0.97849146  1
  H  H6  4  0.41582892  0.49886758  0.49800719  1
  H  H7  4  0.48149631  0.70970744  1.08204360  1
  C  C8  4  0.04870476  0.70087472  0.06264390  1
  C  C9  4  0.12204851  0.64429587  0.18772311  1
  C  C10  4  0.25924054  0.39463481  0.78964280  1
  C  C11  4  0.26071762  0.73273129  0.81168793  1
  C  C12  4  0.29748962  0.56751464  0.85352244  1
  C  C13  4  0.30376386  0.61134084  0.36102052  1
  C  C14  4  0.37819612  0.56044073  0.94790304  1
  C  C15  4  0.38334901  0.62132415  0.45790590  1
  C  C16  4  0.42051229  0.71555348  1.00309222  1
  O  O17  4  0.12516098  0.50314097  0.26420680  1
  O  O18  4  0.17297094  0.36481456  0.83420302  1
  O  O19  4  0.18396851  0.72539126  0.70530664  1
  O  O20  4  0.30446536  0.28727697  0.70941891  1
