###############################################################################################
#
# CIF file generated by modified CIFWriter class 
# in pymatgen (v2025.03.10) https://pymatgen.org/
#
###############################################################################################
data_MACE-OFF23(L)_e7001163aa38594
_symmetry_space_group_name_H-M   P222
_cell_length_a   8.38366435
_cell_length_b   13.18168127
_cell_length_c   9.79260542
_cell_angle_alpha   90.00000000
_cell_angle_beta   90.00000000
_cell_angle_gamma   90.00000000
_symmetry_Int_Tables_number   16
_chemical_formula_moiety   'C9 H8 O4'
_chemical_formula_sum   'H32 C36 O16'
_cell_volume   1082.18857438
_cell_formula_units_Z   4
loop_
 _symmetry_equiv_pos_site_id
 _symmetry_equiv_pos_as_xyz
  1  'x, y, z'
  2  '-x, y, -z'
  3  'x, -y, -z'
  4  '-x, -y, z'
loop_
 _atom_site_type_symbol
 _atom_site_label
 _atom_site_symmetry_multiplicity
 _atom_site_fract_x
 _atom_site_fract_y
 _atom_site_fract_z
 _atom_site_occupancy
  H  H0  4  -0.00038874  0.28883612  0.61395161  1
  H  H1  4  0.06783010  0.37615781  0.14502410  1
  H  H2  4  0.13181363  0.45785851  0.61692316  1
  H  H3  4  0.14039639  0.14130519  0.71500164  1
  H  H4  4  0.16053986  0.27884986  0.04872580  1
  H  H5  4  0.21492536  0.40528908  0.01847379  1
  H  H6  4  0.38927508  0.47847803  0.72961493  1
  H  H7  4  0.38976609  0.06360771  0.13451248  1
  C  C8  4  0.11621410  0.29787991  0.65882577  1
  C  C9  4  0.17823498  0.35225001  0.09743989  1
  C  C10  4  0.18869105  0.39241162  0.66220892  1
  C  C11  4  0.19367468  0.21581699  0.71647033  1
  C  C12  4  0.30656189  0.34203171  0.20277978  1
  C  C13  4  0.33511151  0.40470716  0.72519308  1
  C  C14  4  0.34280764  0.22651019  0.77792054  1
  C  C15  4  0.41198514  0.32234154  0.78276373  1
  C  C16  4  0.41730861  0.13233015  0.83228782  1
  O  O17  4  0.28988957  0.33882440  0.32431682  1
  O  O18  4  0.33576254  0.05864336  0.86086250  1
  O  O19  4  0.42635369  0.13330388  0.15811821  1
  O  O20  4  0.45141321  0.33891972  0.14063699  1
