###############################################################################################
#
# CIF file generated by modified CIFWriter class 
# in pymatgen (v2025.03.10) https://pymatgen.org/
#
###############################################################################################
data_MACE-OFF23(L)_e87d1c7e7c421c7
_symmetry_space_group_name_H-M   P2_1/m
_cell_length_a   11.12192176
_cell_length_b   21.34946086
_cell_length_c   4.76816216
_cell_angle_alpha   90.00000000
_cell_angle_beta   99.71991305
_cell_angle_gamma   90.00000000
_symmetry_Int_Tables_number   11
_chemical_formula_moiety   'C9 H8 O4'
_chemical_formula_sum   'H32 C36 O16'
_cell_volume   1115.93326079
_cell_formula_units_Z   4
loop_
 _symmetry_equiv_pos_site_id
 _symmetry_equiv_pos_as_xyz
  1  'x, y, z'
  2  '-x, -y, -z'
  3  '-x, y+1/2, -z'
  4  'x, -y+1/2, z'
loop_
 _atom_site_type_symbol
 _atom_site_label
 _atom_site_symmetry_multiplicity
 _atom_site_fract_x
 _atom_site_fract_y
 _atom_site_fract_z
 _atom_site_occupancy
  H  H0  4  -0.00625716  0.86313428  0.04496520  1
  H  H1  4  0.07372084  0.53622211  -0.09743147  1
  H  H2  4  0.09412029  0.68933041  0.48802945  1
  H  H3  4  0.24768668  1.12958340  -0.12055066  1
  H  H4  4  0.25445241  0.32475543  0.19506078  1
  H  H5  4  0.27221984  0.86066519  0.78342740  1
  H  H6  4  0.37764295  1.12481916  0.14578553  1
  H  H7  4  0.46973718  0.46078744  0.83024795  1
  C  C8  4  0.07140370  0.88425312  0.17760486  1
  C  C9  4  0.11500659  0.94105595  0.09732027  1
  C  C10  4  0.12813095  0.85482811  0.42368962  1
  C  C11  4  0.21428159  0.96857491  0.26545978  1
  C  C12  4  0.22014477  1.07865149  0.24289665  1
  C  C13  4  0.22789400  0.88252506  0.58946071  1
  C  C14  4  0.27234283  0.94009443  0.51463904  1
  C  C15  4  0.27924876  0.36898547  0.10854441  1
  C  C16  4  0.37680707  0.53282278  0.71419514  1
  O  O17  4  0.14495864  0.41630780  0.39536792  1
  O  O18  4  0.26046621  0.47725896  0.16253950  1
  O  O19  4  0.40434008  1.02558430  0.67106920  1
  O  O20  4  0.43086484  0.56428227  0.91078555  1
