###############################################################################################
#
# CIF file generated by modified CIFWriter class 
# in pymatgen (v2025.03.10) https://pymatgen.org/
#
###############################################################################################
data_MACE-OFF23(L)_e8d9251a8225d8f
_symmetry_space_group_name_H-M   Pnc2
_cell_length_a   5.37349384
_cell_length_b   17.44048203
_cell_length_c   9.74186085
_cell_angle_alpha   90.00000000
_cell_angle_beta   90.00000000
_cell_angle_gamma   90.00000000
_symmetry_Int_Tables_number   30
_chemical_formula_moiety   'C9 H8 O4'
_chemical_formula_sum   'H32 C36 O16'
_cell_volume   912.97137575
_cell_formula_units_Z   4
loop_
 _symmetry_equiv_pos_site_id
 _symmetry_equiv_pos_as_xyz
  1  'x, y, z'
  2  '-x, -y, z'
  3  '-x, y+1/2, z+1/2'
  4  'x, -y+1/2, z+1/2'
loop_
 _atom_site_type_symbol
 _atom_site_label
 _atom_site_symmetry_multiplicity
 _atom_site_fract_x
 _atom_site_fract_y
 _atom_site_fract_z
 _atom_site_occupancy
  H  H0  4  -0.22078654  0.65100019  -0.05112143  1
  H  H1  4  -0.21672796  0.71643309  0.35962165  1
  H  H2  4  0.11552571  0.10840959  0.21087480  1
  H  H3  4  0.12465057  0.60733193  0.09862014  1
  H  H4  4  0.23305420  0.50841006  0.38074817  1
  H  H5  4  0.25612208  0.02966309  0.12616822  1
  H  H6  4  0.28953121  0.03969447  0.30540494  1
  H  H7  4  0.46253988  0.69915789  0.16084103  1
  C  C8  4  -0.06959591  0.68964282  -0.02474240  1
  C  C9  4  -0.06928154  0.76405670  -0.07444617  1
  C  C10  4  0.08810644  0.60510683  0.40380177  1
  C  C11  4  0.11763487  0.68421647  0.45808288  1
  C  C12  4  0.12310462  0.66582438  0.06028776  1
  C  C13  4  0.27737380  0.07109748  0.20926720  1
  C  C14  4  0.30936768  0.70932786  0.54379821  1
  C  C15  4  0.31203465  0.71619864  0.09399276  1
  C  C16  4  0.48836686  0.61597433  0.68636175  1
  O  O17  4  -0.10788349  0.58328734  0.35377670  1
  O  O18  4  0.28347543  0.55960489  0.41422146  1
  O  O19  4  0.30213786  0.61367104  0.75439937  1
  O  O20  4  0.48878281  0.16309267  0.07703458  1
