###############################################################################################
#
# CIF file generated by modified CIFWriter class 
# in pymatgen (v2025.03.10) https://pymatgen.org/
#
###############################################################################################
data_MACE-OFF23(L)_e96ca3eadf16743
_symmetry_space_group_name_H-M   P2_1/c
_cell_length_a   14.37155234
_cell_length_b   8.00325612
_cell_length_c   6.90741000
_cell_angle_alpha   90.00000000
_cell_angle_beta   79.18112659
_cell_angle_gamma   90.00000000
_symmetry_Int_Tables_number   14
_chemical_formula_moiety   'C9 H8 O4'
_chemical_formula_sum   'H32 C36 O16'
_cell_volume   780.36327804
_cell_formula_units_Z   4
loop_
 _symmetry_equiv_pos_site_id
 _symmetry_equiv_pos_as_xyz
  1  'x, y, z'
  2  '-x, -y, -z'
  3  '-x, y+1/2, -z+1/2'
  4  'x, -y+1/2, z+1/2'
loop_
 _atom_site_type_symbol
 _atom_site_label
 _atom_site_symmetry_multiplicity
 _atom_site_fract_x
 _atom_site_fract_y
 _atom_site_fract_z
 _atom_site_occupancy
  H  H0  4  -0.03810972  1.02903582  0.74238384  1
  H  H1  4  -0.02476927  0.82045952  0.66696883  1
  H  H2  4  -0.01885913  0.87081539  0.91221935  1
  H  H3  4  0.18408863  0.21981240  0.45649940  1
  H  H4  4  0.24129256  0.57234469  0.72528561  1
  H  H5  4  0.41321562  0.96880305  0.14054208  1
  H  H6  4  0.45291969  1.05860735  0.68289848  1
  H  H7  4  0.47882428  0.27786539  0.88512197  1
  C  C8  4  -0.00090449  0.91391904  0.76138424  1
  C  C9  4  0.10328541  0.93720016  0.69676380  1
  C  C10  4  0.25144930  0.83638329  0.75187562  1
  C  C11  4  0.27913412  0.34987275  0.29796011  1
  C  C12  4  0.28839012  0.82192597  0.21542350  1
  C  C13  4  0.30999531  0.97584626  0.74447197  1
  C  C14  4  0.38557186  0.84380240  0.16751090  1
  C  C15  4  0.40731295  0.95101308  0.69088983  1
  C  C16  4  0.44533918  0.79315326  0.65303991  1
  O  O17  4  0.14007665  0.47487717  0.06205103  1
  O  O18  4  0.15246545  0.65620609  0.30398376  1
  O  O19  4  0.19541690  1.16261267  0.92073462  1
  O  O20  4  0.32714048  1.27083003  0.74196140  1
