###############################################################################################
#
# CIF file generated by modified CIFWriter class 
# in pymatgen (v2025.03.10) https://pymatgen.org/
#
###############################################################################################
data_MACE-OFF23(L)_ea5a09273685399
_symmetry_space_group_name_H-M   Pba2
_cell_length_a   8.26315261
_cell_length_b   26.10128397
_cell_length_c   3.80125126
_cell_angle_alpha   90.00000000
_cell_angle_beta   90.00000000
_cell_angle_gamma   90.00000000
_symmetry_Int_Tables_number   32
_chemical_formula_moiety   'C9 H8 O4'
_chemical_formula_sum   'H32 C36 O16'
_cell_volume   819.84966321
_cell_formula_units_Z   4
loop_
 _symmetry_equiv_pos_site_id
 _symmetry_equiv_pos_as_xyz
  1  'x, y, z'
  2  '-x, -y, z'
  3  '-x+1/2, y+1/2, z'
  4  'x+1/2, -y+1/2, z'
loop_
 _atom_site_type_symbol
 _atom_site_label
 _atom_site_symmetry_multiplicity
 _atom_site_fract_x
 _atom_site_fract_y
 _atom_site_fract_z
 _atom_site_occupancy
  H  H0  4  -0.17906014  0.08946317  1.00500254  1
  H  H1  4  -0.16719527  0.17788856  0.75830634  1
  H  H2  4  -0.15177530  0.68949881  0.27143229  1
  H  H3  4  -0.07079070  0.73246783  -0.03802790  1
  H  H4  4  -0.06009261  0.54089515  0.61396992  1
  H  H5  4  -0.05183870  0.66462769  -0.10172704  1
  H  H6  4  0.05801942  0.03238655  0.92909472  1
  H  H7  4  0.06886297  0.20614420  0.42979926  1
  C  C8  4  -0.07368551  0.10260213  0.86390225  1
  C  C9  4  -0.06717979  0.15171961  0.72656600  1
  C  C10  4  -0.05215268  0.69566244  0.08841367  1
  C  C11  4  0.05795378  0.07049538  0.82037328  1
  C  C12  4  0.06782737  0.16850099  0.54365048  1
  C  C13  4  0.10189852  0.69621531  0.29464680  1
  C  C14  4  0.16771778  0.54979417  0.61984796  1
  C  C15  4  0.19612952  0.08687173  0.64405389  1
  C  C16  4  0.19890075  0.13617436  0.50331646  1
  O  O17  4  0.02142190  0.56931293  0.62587506  1
  O  O18  4  0.15712411  0.73244867  0.44780127  1
  O  O19  4  0.16814428  0.64874216  0.29926111  1
  O  O20  4  0.19421353  0.50362497  0.60821618  1
