###############################################################################################
#
# CIF file generated by modified CIFWriter class 
# in pymatgen (v2025.03.10) https://pymatgen.org/
#
###############################################################################################
data_MACE-OFF23(L)_ec18537c0bdb8c2
_symmetry_space_group_name_H-M   P2/c
_cell_length_a   11.17228033
_cell_length_b   5.90886032
_cell_length_c   13.61294994
_cell_angle_alpha   90.00000000
_cell_angle_beta   77.47668251
_cell_angle_gamma   90.00000000
_symmetry_Int_Tables_number   13
_chemical_formula_moiety   'C9 H8 O4'
_chemical_formula_sum   'H32 C36 O16'
_cell_volume   877.28375549
_cell_formula_units_Z   4
loop_
 _symmetry_equiv_pos_site_id
 _symmetry_equiv_pos_as_xyz
  1  'x, y, z'
  2  '-x, -y, -z'
  3  '-x, y, -z+1/2'
  4  'x, -y, z+1/2'
loop_
 _atom_site_type_symbol
 _atom_site_label
 _atom_site_symmetry_multiplicity
 _atom_site_fract_x
 _atom_site_fract_y
 _atom_site_fract_z
 _atom_site_occupancy
  H  H0  4  0.03182095  -0.01159525  0.60578676  1
  H  H1  4  0.06598131  0.63853828  0.02568205  1
  H  H2  4  0.15227031  1.12863607  0.23158610  1
  H  H3  4  0.21571184  0.37513920  0.07129039  1
  H  H4  4  0.34570259  1.03522559  0.50346955  1
  H  H5  4  0.40738461  0.76388381  0.47080111  1
  H  H6  4  0.41267658  0.65355015  0.82286414  1
  H  H7  4  0.46062191  0.99501817  0.39121989  1
  C  C8  4  0.09814720  0.89854376  0.12624704  1
  C  C9  4  0.11712293  0.68735281  0.08097628  1
  C  C10  4  0.16469712  0.96421684  0.19627985  1
  C  C11  4  0.20158866  0.46043394  0.60656949  1
  C  C12  4  0.24817464  0.81559843  0.22200236  1
  C  C13  4  0.26636881  0.60182388  0.17881814  1
  C  C14  4  0.28126370  0.87352226  0.38583582  1
  C  C15  4  0.35719506  0.44688686  0.20841849  1
  C  C16  4  0.38071068  0.92234716  0.44069635  1
  O  O17  4  0.17677430  0.82708911  0.42256699  1
  O  O18  4  0.32482177  0.11412989  0.78409891  1
  O  O19  4  0.33917110  0.41582784  0.30679628  1
  O  O20  4  0.44106021  0.35935717  0.14829592  1
