###############################################################################################
#
# CIF file generated by modified CIFWriter class 
# in pymatgen (v2025.03.10) https://pymatgen.org/
#
###############################################################################################
data_MACE-OFF23(L)_fd1fb0a49ccafc5
_symmetry_space_group_name_H-M   P2_1/c
_cell_length_a   11.89090567
_cell_length_b   4.68657169
_cell_length_c   14.81480111
_cell_angle_alpha   90.00000000
_cell_angle_beta   88.45534936
_cell_angle_gamma   90.00000000
_symmetry_Int_Tables_number   14
_chemical_formula_moiety   'C9 H8 O4'
_chemical_formula_sum   'H32 C36 O16'
_cell_volume   825.29303914
_cell_formula_units_Z   4
loop_
 _symmetry_equiv_pos_site_id
 _symmetry_equiv_pos_as_xyz
  1  'x, y, z'
  2  '-x, -y, -z'
  3  '-x, y+1/2, -z+1/2'
  4  'x, -y+1/2, z+1/2'
loop_
 _atom_site_type_symbol
 _atom_site_label
 _atom_site_symmetry_multiplicity
 _atom_site_fract_x
 _atom_site_fract_y
 _atom_site_fract_z
 _atom_site_occupancy
  H  H0  4  -0.01775965  0.45732036  0.34295957  1
  H  H1  4  0.02217569  0.81546551  0.45944675  1
  H  H2  4  0.11677239  0.39249685  0.21270249  1
  H  H3  4  0.19277889  0.38160002  0.94374118  1
  H  H4  4  0.36612073  0.83659656  -0.02226029  1
  H  H5  4  0.38107413  1.00075280  0.53261061  1
  H  H6  4  0.46246117  0.79232632  0.06621414  1
  H  H7  4  0.49171965  1.18258253  0.25988555  1
  C  C8  4  0.05748568  0.91408340  0.83718220  1
  C  C9  4  0.07960028  0.78938179  0.40240160  1
  C  C10  4  0.13131296  0.54984737  0.26426369  1
  C  C11  4  0.17510987  0.54341872  0.89417299  1
  C  C12  4  0.22740772  0.71445004  0.25722072  1
  C  C13  4  0.25129762  0.58010036  0.82181900  1
  C  C14  4  0.29207831  0.81260165  0.10894023  1
  C  C15  4  0.35236627  1.10655743  0.31979114  1
  C  C16  4  0.38086602  0.77012440  0.54105772  1
  O  O17  4  0.22052525  0.50886773  0.60122098  1
  O  O18  4  0.30171791  0.65452611  0.18587463  1
  O  O19  4  0.36259478  0.19026860  0.86888175  1
  O  O20  4  0.43380560  0.46584867  0.75939701  1
