###############################################################################################
#
# CIF file generated by modified CIFWriter class 
# in pymatgen (v2025.03.10) https://pymatgen.org/
#
###############################################################################################
data_MACE-OFF23(L)_fe404f0c22ab5d7
_symmetry_space_group_name_H-M   P-4
_cell_length_a   7.75561723
_cell_length_b   7.75561723
_cell_length_c   14.85735484
_cell_angle_alpha   90.00000000
_cell_angle_beta   90.00000000
_cell_angle_gamma   90.00000000
_symmetry_Int_Tables_number   81
_chemical_formula_moiety   'C9 H8 O4'
_chemical_formula_sum   'H32 C36 O16'
_cell_volume   893.66392984
_cell_formula_units_Z   4
loop_
 _symmetry_equiv_pos_site_id
 _symmetry_equiv_pos_as_xyz
  1  'x, y, z'
  2  'y, -x, -z'
  3  '-x, -y, z'
  4  '-y, x, -z'
loop_
 _atom_site_type_symbol
 _atom_site_label
 _atom_site_symmetry_multiplicity
 _atom_site_fract_x
 _atom_site_fract_y
 _atom_site_fract_z
 _atom_site_occupancy
  H  H0  4  -0.23504741  0.64069140  0.94341140  1
  H  H1  4  -0.21273818  0.73670203  0.65961127  1
  H  H2  4  0.04513526  0.34960300  0.44154647  1
  H  H3  4  0.07272626  0.71665029  0.95500480  1
  H  H4  4  0.12047561  0.18695905  0.51354149  1
  H  H5  4  0.12878061  0.49664740  0.22271160  1
  H  H6  4  0.23962393  0.38151081  0.50321619  1
  H  H7  4  0.36077429  -0.37518419  0.20616310  1
  C  C8  4  -0.24350768  0.68277109  0.80046366  1
  C  C9  4  -0.16472211  0.68017401  0.88428364  1
  C  C10  4  -0.15280292  0.73513327  0.72502873  1
  C  C11  4  0.00753528  0.72326335  0.89091796  1
  C  C12  4  0.01898349  0.77974776  0.73230483  1
  C  C13  4  0.10282864  0.77173592  0.81527657  1
  C  C14  4  0.16111784  0.28821367  0.46748984  1
  C  C15  4  0.19891370  0.28976911  0.16964257  1
  C  C16  4  0.21122692  0.74058314  0.60926807  1
  O  O17  4  0.09842286  0.84167522  0.65477058  1
  O  O18  4  0.12753164  0.37575169  0.23928023  1
  O  O19  4  0.23627313  0.36399126  0.10111002  1
  O  O20  4  0.24113489  0.59361521  0.62890395  1
