###############################################################################################
#
# CIF file generated by modified CIFWriter class 
# in pymatgen (v2025.03.10) https://pymatgen.org/
#
###############################################################################################
data_PBE+MBD_tight_10792556461b816
_symmetry_space_group_name_H-M   P2_1/c
_cell_length_a   6.47756420
_cell_length_b   7.87978099
_cell_length_c   20.21423249
_cell_angle_alpha   90.00000000
_cell_angle_beta   104.30974914
_cell_angle_gamma   90.00000000
_symmetry_Int_Tables_number   14
_chemical_formula_moiety   'C8 N4 S3'
_chemical_formula_sum   'C32 S12 N16'
_cell_volume   999.75852094
_cell_formula_units_Z   4
loop_
 _symmetry_equiv_pos_site_id
 _symmetry_equiv_pos_as_xyz
  1  'x, y, z'
  2  '-x, -y, -z'
  3  '-x, y+1/2, -z+1/2'
  4  'x, -y+1/2, z+1/2'
loop_
 _atom_site_type_symbol
 _atom_site_label
 _atom_site_symmetry_multiplicity
 _atom_site_fract_x
 _atom_site_fract_y
 _atom_site_fract_z
 _atom_site_occupancy
  C  C0  4  0.16410940  0.14809832  0.28195394  1
  C  C1  4  0.30800389  0.23350609  0.33595387  1
  C  C2  4  0.34396055  0.83126917  0.03706358  1
  C  C3  4  0.34577909  0.12201001  0.56802415  1
  C  C4  4  0.46122850  0.78739893  0.23858827  1
  C  C5  4  0.46519217  0.25851240  0.47261058  1
  C  C6  4  0.49186650  0.19734319  0.82593020  1
  C  C7  4  0.49493943  0.20826364  0.54030948  1
  S  S8  4  0.22206009  0.23698800  0.41192020  1
  S  S9  4  0.24798188  0.73868290  0.41516439  1
  S  S10  4  0.31115307  0.91566180  0.11473190  1
  N  N11  4  0.04438307  0.07624765  0.23836637  1
  N  N12  4  0.18117073  0.83766088  -0.01715062  1
  N  N13  4  0.22200570  0.45498725  1.08909666  1
  N  N14  4  0.41964896  0.77877402  0.29136794  1
