###############################################################################################
#
# CIF file generated by modified CIFWriter class 
# in pymatgen (v2025.03.10) https://pymatgen.org/
#
###############################################################################################
data_PBE+MBD_tight_12780ac7e7ee6c4
_symmetry_space_group_name_H-M   P2_12_12_1
_cell_length_a   6.14955755
_cell_length_b   15.75072871
_cell_length_c   10.99425492
_cell_angle_alpha   90.00000000
_cell_angle_beta   90.00000000
_cell_angle_gamma   90.00000000
_symmetry_Int_Tables_number   19
_chemical_formula_moiety   'C8 N4 S3'
_chemical_formula_sum   'C32 S12 N16'
_cell_volume   1064.90366949
_cell_formula_units_Z   4
loop_
 _symmetry_equiv_pos_site_id
 _symmetry_equiv_pos_as_xyz
  1  'x, y, z'
  2  '-x, y+1/2, -z+1/2'
  3  'x+1/2, -y+1/2, -z'
  4  '-x+1/2, -y, z+1/2'
loop_
 _atom_site_type_symbol
 _atom_site_label
 _atom_site_symmetry_multiplicity
 _atom_site_fract_x
 _atom_site_fract_y
 _atom_site_fract_z
 _atom_site_occupancy
  C  C0  4  -0.01428714  -0.04490446  0.17774564  1
  C  C1  4  0.03408417  0.66984318  0.70140330  1
  C  C2  4  0.03409712  0.02004392  0.26098830  1
  C  C3  4  0.03925119  0.78686481  0.50544681  1
  C  C4  4  0.05626239  0.81419593  0.62749373  1
  C  C5  4  0.05978510  0.75801023  0.72248021  1
  C  C6  4  0.20359958  0.13258687  0.35444302  1
  C  C7  4  0.21024897  0.07503158  0.25562502  1
  S  S8  4  -0.11829718  0.04518925  0.38881242  1
  S  S9  4  0.08600415  0.92523524  0.64492813  1
  S  S10  4  0.10181032  0.78599766  0.87588043  1
  N  N11  4  -0.05028359  -0.09776974  0.10627194  1
  N  N12  4  0.01301154  0.59707188  0.68573592  1
  N  N13  4  0.02987446  0.76634507  0.40351337  1
  N  N14  4  0.03972251  0.12415051  0.43129481  1
