###############################################################################################
#
# CIF file generated by modified CIFWriter class 
# in pymatgen (v2025.03.10) https://pymatgen.org/
#
###############################################################################################
data_PBE+MBD_tight_1492044a4807b93
_symmetry_space_group_name_H-M   P2/c
_cell_length_a   6.68091654
_cell_length_b   12.92510771
_cell_length_c   13.31208588
_cell_angle_alpha   90.00000000
_cell_angle_beta   91.09177020
_cell_angle_gamma   90.00000000
_symmetry_Int_Tables_number   13
_chemical_formula_moiety   'C8 N4 S3'
_chemical_formula_sum   'C32 S12 N16'
_cell_volume   1149.31077627
_cell_formula_units_Z   4
loop_
 _symmetry_equiv_pos_site_id
 _symmetry_equiv_pos_as_xyz
  1  'x, y, z'
  2  '-x, -y, -z'
  3  '-x, y, -z+1/2'
  4  'x, -y, z+1/2'
loop_
 _atom_site_type_symbol
 _atom_site_label
 _atom_site_symmetry_multiplicity
 _atom_site_fract_x
 _atom_site_fract_y
 _atom_site_fract_z
 _atom_site_occupancy
  C  C0  4  0.24680585  0.50015909  0.51485045  1
  C  C1  4  0.24895389  0.85120292  0.74272773  1
  C  C2  4  0.25232160  0.13067651  0.34675422  1
  C  C3  4  0.25413167  0.40267150  0.69795513  1
  C  C4  4  0.25754999  0.39053549  0.51734447  1
  C  C5  4  0.26010559  0.79584131  0.92290472  1
  C  C6  4  0.26133530  0.34260090  0.60914330  1
  C  C7  4  0.26283646  0.84729858  1.01735521  1
  S  S8  4  0.24840211  0.00798655  0.39949127  1
  S  S9  4  0.26508302  0.66346097  0.89677680  1
  S  S10  4  0.27726875  0.20994618  0.63735446  1
  N  N11  4  0.23890727  0.59024005  0.51244367  1
  N  N12  4  0.24650861  0.83695848  0.65610528  1
  N  N13  4  0.24980816  0.44914186  0.77292649  1
  N  N14  4  0.25656437  0.94932129  1.01590970  1
