###############################################################################################
#
# CIF file generated by modified CIFWriter class 
# in pymatgen (v2025.03.10) https://pymatgen.org/
#
###############################################################################################
data_PBE+MBD_tight_16de16a415a51ab
_symmetry_space_group_name_H-M   Pcc2
_cell_length_a   12.50444936
_cell_length_b   13.04142770
_cell_length_c   6.87704283
_cell_angle_alpha   90.00000000
_cell_angle_beta   90.00000000
_cell_angle_gamma   90.00000000
_symmetry_Int_Tables_number   27
_chemical_formula_moiety   'C8 N4 S3'
_chemical_formula_sum   'C32 S12 N16'
_cell_volume   1121.47975797
_cell_formula_units_Z   4
loop_
 _symmetry_equiv_pos_site_id
 _symmetry_equiv_pos_as_xyz
  1  'x, y, z'
  2  '-x, -y, z'
  3  '-x, y, z+1/2'
  4  'x, -y, z+1/2'
loop_
 _atom_site_type_symbol
 _atom_site_label
 _atom_site_symmetry_multiplicity
 _atom_site_fract_x
 _atom_site_fract_y
 _atom_site_fract_z
 _atom_site_occupancy
  C  C0  4  0.09674769  0.17251615  -0.00400568  1
  C  C1  4  0.14971851  0.38413631  0.04150296  1
  C  C2  4  0.15936711  0.20745011  0.15415065  1
  C  C3  4  0.18571671  0.30862097  0.17463380  1
  C  C4  4  0.33586459  0.14917300  0.34338785  1
  C  C5  4  0.36425423  0.25462344  0.35910617  1
  C  C6  4  0.46059575  0.35001652  0.90009266  1
  C  C7  4  0.47445503  0.26275919  0.38044404  1
  S  S8  4  0.20208151  0.10885353  0.31441672  1
  S  S9  4  0.27233625  0.35607047  0.35746297  1
  S  S10  4  0.47016083  0.14079773  0.88267912  1
  N  N11  4  0.04718911  0.14108851  -0.13465238  1
  N  N12  4  0.12331482  0.44776055  -0.06746623  1
  N  N13  4  0.40212657  0.41899057  0.91850866  1
  N  N14  4  0.41447622  0.08140076  0.35250121  1
