###############################################################################################
#
# CIF file generated by modified CIFWriter class 
# in pymatgen (v2025.03.10) https://pymatgen.org/
#
###############################################################################################
data_PBE+MBD_tight_17c3c92c765cf
_symmetry_space_group_name_H-M   Pca2_1
_cell_length_a   18.49727852
_cell_length_b   7.96719151
_cell_length_c   7.25489616
_cell_angle_alpha   90.00000000
_cell_angle_beta   90.00000000
_cell_angle_gamma   90.00000000
_symmetry_Int_Tables_number   29
_chemical_formula_moiety   'C8 N4 S3'
_chemical_formula_sum   'C32 S12 N16'
_cell_volume   1069.16391630
_cell_formula_units_Z   4
loop_
 _symmetry_equiv_pos_site_id
 _symmetry_equiv_pos_as_xyz
  1  'x, y, z'
  2  '-x, -y, z+1/2'
  3  '-x+1/2, y, z+1/2'
  4  'x+1/2, -y, z'
loop_
 _atom_site_type_symbol
 _atom_site_label
 _atom_site_symmetry_multiplicity
 _atom_site_fract_x
 _atom_site_fract_y
 _atom_site_fract_z
 _atom_site_occupancy
  C  C0  4  -0.14729220  0.15714392  0.05189834  1
  C  C1  4  -0.12506171  0.49736673  -0.06265355  1
  C  C2  4  -0.07929191  0.23739424  0.06770320  1
  C  C3  4  -0.06801492  0.39843952  0.00937117  1
  C  C4  4  0.06499615  0.17925325  0.05906522  1
  C  C5  4  0.07716647  0.34481498  -0.00510508  1
  C  C6  4  0.12590267  0.08119377  0.02663030  1
  C  C7  4  0.13161093  -0.09083093  0.06644404  1
  S  S8  4  -0.01313716  0.10573942  0.16791888  1
  S  S9  4  0.01418769  0.51072557  0.01652981  1
  S  S10  4  0.19189268  0.20568910  -0.07370501  1
  N  N11  4  -0.20122773  0.08194733  0.04166404  1
  N  N12  4  -0.16896616  0.58802244  -0.12063645  1
  N  N13  4  0.13147490  -0.23421982  0.09872437  1
  N  N14  4  0.14057728  0.37418357  -0.08235039  1
