###############################################################################################
#
# CIF file generated by modified CIFWriter class 
# in pymatgen (v2025.03.10) https://pymatgen.org/
#
###############################################################################################
data_PBE+MBD_tight_1aad98968a91537
_symmetry_space_group_name_H-M   P2_1/c
_cell_length_a   11.47755536
_cell_length_b   6.93860262
_cell_length_c   13.07789605
_cell_angle_alpha   90.00000000
_cell_angle_beta   90.31959651
_cell_angle_gamma   90.00000000
_symmetry_Int_Tables_number   14
_chemical_formula_moiety   'C8 N4 S3'
_chemical_formula_sum   'C32 S12 N16'
_cell_volume   1041.48384190
_cell_formula_units_Z   4
loop_
 _symmetry_equiv_pos_site_id
 _symmetry_equiv_pos_as_xyz
  1  'x, y, z'
  2  '-x, -y, -z'
  3  '-x, y+1/2, -z+1/2'
  4  'x, -y+1/2, z+1/2'
loop_
 _atom_site_type_symbol
 _atom_site_label
 _atom_site_symmetry_multiplicity
 _atom_site_fract_x
 _atom_site_fract_y
 _atom_site_fract_z
 _atom_site_occupancy
  C  C0  4  -0.02731347  0.03445497  0.64682645  1
  C  C1  4  0.01947756  0.07864124  0.11497670  1
  C  C2  4  0.08842712  0.09491166  0.62868720  1
  C  C3  4  0.11125064  0.28543202  0.61048610  1
  C  C4  4  0.28358417  -0.00938415  0.53103546  1
  C  C5  4  0.30437741  0.18815653  0.50948095  1
  C  C6  4  0.37639306  0.29647909  -0.07521712  1
  C  C7  4  0.41928553  0.37139052  0.37798657  1
  S  S8  4  0.19470612  0.58845106  0.13273727  1
  S  S9  4  0.25012714  0.12068821  0.08264797  1
  S  S10  4  0.41128570  -0.02723296  0.38349510  1
  N  N11  4  -0.12260000  -0.01494345  0.66281224  1
  N  N12  4  -0.05650812  -0.03222863  0.12167360  1
  N  N13  4  0.33419037  -0.13732783  0.47134944  1
  N  N14  4  0.45656873  0.50888629  0.33860838  1
