###############################################################################################
#
# CIF file generated by modified CIFWriter class 
# in pymatgen (v2025.03.10) https://pymatgen.org/
#
###############################################################################################
data_PBE+MBD_tight_1c5a7b78611ab23
_symmetry_space_group_name_H-M   P-4
_cell_length_a   14.04013218
_cell_length_b   14.04013218
_cell_length_c   6.66166348
_cell_angle_alpha   90.00000000
_cell_angle_beta   90.00000000
_cell_angle_gamma   90.00000000
_symmetry_Int_Tables_number   81
_chemical_formula_moiety   'C8 N4 S3'
_chemical_formula_sum   'C32 S12 N16'
_cell_volume   1313.18248999
_cell_formula_units_Z   4
loop_
 _symmetry_equiv_pos_site_id
 _symmetry_equiv_pos_as_xyz
  1  'x, y, z'
  2  'y, -x, -z'
  3  '-x, -y, z'
  4  '-y, x, -z'
loop_
 _atom_site_type_symbol
 _atom_site_label
 _atom_site_symmetry_multiplicity
 _atom_site_fract_x
 _atom_site_fract_y
 _atom_site_fract_z
 _atom_site_occupancy
  C  C0  4  0.08010493  0.76797443  0.06656501  1
  C  C1  4  0.11648350  0.53788436  0.62737676  1
  C  C2  4  0.12447171  0.83390020  0.44732019  1
  C  C3  4  0.13875956  0.48195732  0.79599602  1
  C  C4  4  0.15998674  0.38521444  0.80419368  1
  C  C5  4  0.17535960  0.79216203  0.11400306  1
  C  C6  4  0.17647180  0.19784705  0.69745826  1
  C  C7  4  0.18728665  0.36117978  1.00390598  1
  S  S8  4  0.14827404  0.30977882  0.59665651  1
  S  S9  4  0.14942564  0.53057424  1.03500447  1
  S  S10  4  0.22917048  0.25073918  1.09142627  1
  N  N11  4  0.00396644  0.74360563  0.01969385  1
  N  N12  4  0.06552456  0.84122949  0.56952410  1
  N  N13  4  0.10081007  0.58692664  0.48979516  1
  N  N14  4  0.18427154  0.43002122  1.13849754  1
