###############################################################################################
#
# CIF file generated by modified CIFWriter class 
# in pymatgen (v2025.03.10) https://pymatgen.org/
#
###############################################################################################
data_PBE+MBD_tight_1cda89e9f6433ff
_symmetry_space_group_name_H-M   Cc
_cell_length_a   8.88182483
_cell_length_b   7.12665405
_cell_length_c   15.93584608
_cell_angle_alpha   90.00000000
_cell_angle_beta   75.30257274
_cell_angle_gamma   90.00000000
_symmetry_Int_Tables_number   9
_chemical_formula_moiety   'C8 N4 S3'
_chemical_formula_sum   'C32 S12 N16'
_cell_volume   975.69669091
_cell_formula_units_Z   4
loop_
 _symmetry_equiv_pos_site_id
 _symmetry_equiv_pos_as_xyz
  1  'x, y, z'
  2  'x, -y, z+1/2'
  3  'x+1/2, y+1/2, z'
  4  'x+1/2, -y+1/2, z+1/2'
loop_
 _atom_site_type_symbol
 _atom_site_label
 _atom_site_symmetry_multiplicity
 _atom_site_fract_x
 _atom_site_fract_y
 _atom_site_fract_z
 _atom_site_occupancy
  C  C0  4  -0.12424010  1.01544659  0.91899008  1
  C  C1  4  -0.03514507  0.65110058  0.87922092  1
  C  C2  4  0.01519218  0.01846539  0.35408673  1
  C  C3  4  0.05871309  0.20114761  0.33472675  1
  C  C4  4  0.26146645  1.10070322  0.72369156  1
  C  C5  4  0.30352136  0.91115306  0.70360426  1
  C  C6  4  0.43161126  0.90333459  0.63216166  1
  C  C7  4  0.50304028  0.26433551  0.09583237  1
  S  S8  4  0.10733293  -0.18754120  0.30748705  1
  S  S9  4  0.21899402  0.70859692  0.75739382  1
  S  S10  4  0.48622031  -0.13019540  0.09769606  1
  N  N11  4  -0.24024548  1.03952143  0.97170482  1
  N  N12  4  -0.10890748  0.47709564  0.41183147  1
  N  N13  4  0.34756932  1.22859157  0.67365695  1
  N  N14  4  0.55495070  0.40999010  0.07026567  1
