###############################################################################################
#
# CIF file generated by modified CIFWriter class 
# in pymatgen (v2025.03.10) https://pymatgen.org/
#
###############################################################################################
data_PBE+MBD_tight_1ed5dc0f42fac43
_symmetry_space_group_name_H-M   P-4
_cell_length_a   11.78343728
_cell_length_b   11.78343728
_cell_length_c   8.66198637
_cell_angle_alpha   90.00000000
_cell_angle_beta   90.00000000
_cell_angle_gamma   90.00000000
_symmetry_Int_Tables_number   81
_chemical_formula_moiety   'C8 N4 S3'
_chemical_formula_sum   'C32 S12 N16'
_cell_volume   1202.71155897
_cell_formula_units_Z   4
loop_
 _symmetry_equiv_pos_site_id
 _symmetry_equiv_pos_as_xyz
  1  'x, y, z'
  2  'y, -x, -z'
  3  '-x, -y, z'
  4  '-y, x, -z'
loop_
 _atom_site_type_symbol
 _atom_site_label
 _atom_site_symmetry_multiplicity
 _atom_site_fract_x
 _atom_site_fract_y
 _atom_site_fract_z
 _atom_site_occupancy
  C  C0  4  0.13593857  0.74091186  0.66177901  1
  C  C1  4  0.13735663  0.74351746  0.81917802  1
  C  C2  4  0.15721747  0.16941559  0.09979939  1
  C  C3  4  0.16217565  0.16616167  0.42550658  1
  C  C4  4  0.18300986  0.51912176  0.66099141  1
  C  C5  4  0.18643428  0.52346705  0.82448292  1
  C  C6  4  0.25764870  0.43888618  0.87998150  1
  C  C7  4  0.29181015  0.42131985  1.03339504  1
  S  S8  4  0.10435743  0.61838525  0.55153633  1
  S  S9  4  0.11029144  0.62223623  0.93473069  1
  S  S10  4  0.30757555  0.36136103  0.72411498  1
  N  N11  4  0.07691144  0.19906023  0.03238412  1
  N  N12  4  0.08397137  0.19346863  0.49883018  1
  N  N13  4  0.24274954  0.43837530  0.59304254  1
  N  N14  4  0.32254753  0.40878363  1.16037927  1
