###############################################################################################
#
# CIF file generated by modified CIFWriter class 
# in pymatgen (v2025.03.10) https://pymatgen.org/
#
###############################################################################################
data_PBE+MBD_tight_1eec33342767ad4
_symmetry_space_group_name_H-M   P2_1/c
_cell_length_a   14.05063998
_cell_length_b   13.15397839
_cell_length_c   6.67932307
_cell_angle_alpha   90.00000000
_cell_angle_beta   122.93271055
_cell_angle_gamma   90.00000000
_symmetry_Int_Tables_number   14
_chemical_formula_moiety   'C8 N4 S3'
_chemical_formula_sum   'C32 S12 N16'
_cell_volume   1036.11481561
_cell_formula_units_Z   4
loop_
 _symmetry_equiv_pos_site_id
 _symmetry_equiv_pos_as_xyz
  1  'x, y, z'
  2  '-x, -y, -z'
  3  '-x, y+1/2, -z+1/2'
  4  'x, -y+1/2, z+1/2'
loop_
 _atom_site_type_symbol
 _atom_site_label
 _atom_site_symmetry_multiplicity
 _atom_site_fract_x
 _atom_site_fract_y
 _atom_site_fract_z
 _atom_site_occupancy
  C  C0  4  0.05941860  0.55830014  0.85429509  1
  C  C1  4  0.11851421  1.01101200  0.30064056  1
  C  C2  4  0.17928635  0.51113612  0.69735528  1
  C  C3  4  0.23015162  1.07861848  0.17944968  1
  C  C4  4  0.32669199  0.87400090  0.16094881  1
  C  C5  4  0.37992823  0.95989933  0.15463460  1
  C  C6  4  0.38088442  0.77814051  0.22290442  1
  C  C7  4  0.49495463  0.54576270  0.72593985  1
  S  S8  4  0.12724783  1.14089863  0.35474993  1
  S  S9  4  0.18638386  0.86919946  0.09217385  1
  S  S10  4  0.31846309  1.08204509  0.06667353  1
  N  N11  4  0.01039838  0.88395064  0.39870650  1
  N  N12  4  0.20921021  1.16347660  0.25459834  1
  N  N13  4  0.41002699  0.45020976  0.21253486  1
  N  N14  4  0.41968132  0.69657738  0.26563323  1
