###############################################################################################
#
# CIF file generated by modified CIFWriter class 
# in pymatgen (v2025.03.10) https://pymatgen.org/
#
###############################################################################################
data_PBE+MBD_tight_1f4261dfbab80b6
_symmetry_space_group_name_H-M   Pna2_1
_cell_length_a   18.25645314
_cell_length_b   5.32850763
_cell_length_c   10.64894559
_cell_angle_alpha   90.00000000
_cell_angle_beta   90.00000000
_cell_angle_gamma   90.00000000
_symmetry_Int_Tables_number   33
_chemical_formula_moiety   'C8 N4 S3'
_chemical_formula_sum   'C32 S12 N16'
_cell_volume   1035.92569800
_cell_formula_units_Z   4
loop_
 _symmetry_equiv_pos_site_id
 _symmetry_equiv_pos_as_xyz
  1  'x, y, z'
  2  '-x, -y, z+1/2'
  3  '-x+1/2, y+1/2, z+1/2'
  4  'x+1/2, -y+1/2, z'
loop_
 _atom_site_type_symbol
 _atom_site_label
 _atom_site_symmetry_multiplicity
 _atom_site_fract_x
 _atom_site_fract_y
 _atom_site_fract_z
 _atom_site_occupancy
  C  C0  4  0.01182194  0.50065145  0.55333086  1
  C  C1  4  0.03668815  0.11068347  0.73116565  1
  C  C2  4  0.07778519  0.36095021  0.55286314  1
  C  C3  4  0.08953866  0.17517179  0.63921532  1
  C  C4  4  0.20323839  1.27655958  -0.06765964  1
  C  C5  4  0.21480633  1.06383048  0.00784459  1
  C  C6  4  0.22266909  0.41527513  0.51835414  1
  C  C7  4  0.23529886  0.22290177  0.60769104  1
  S  S8  4  0.14067324  0.45167564  0.43462378  1
  S  S9  4  0.14789132  0.94356387  0.10693788  1
  S  S10  4  0.16989489  -0.00657623  0.64888197  1
  N  N11  4  -0.04189504  0.61906613  0.55234776  1
  N  N12  4  -0.00521695  0.04634802  0.80741119  1
  N  N13  4  0.19299626  1.45503582  -0.12858899  1
  N  N14  4  0.19971631  0.71686331  0.16173370  1
