###############################################################################################
#
# CIF file generated by modified CIFWriter class 
# in pymatgen (v2025.03.10) https://pymatgen.org/
#
###############################################################################################
data_PBE+MBD_tight_1fb6b81c820a4b3
_symmetry_space_group_name_H-M   P2_1/c
_cell_length_a   7.05358088
_cell_length_b   10.78200054
_cell_length_c   13.51644268
_cell_angle_alpha   90.00000000
_cell_angle_beta   90.32707331
_cell_angle_gamma   90.00000000
_symmetry_Int_Tables_number   14
_chemical_formula_moiety   'C8 N4 S3'
_chemical_formula_sum   'C32 S12 N16'
_cell_volume   1027.93186816
_cell_formula_units_Z   4
loop_
 _symmetry_equiv_pos_site_id
 _symmetry_equiv_pos_as_xyz
  1  'x, y, z'
  2  '-x, -y, -z'
  3  '-x, y+1/2, -z+1/2'
  4  'x, -y+1/2, z+1/2'
loop_
 _atom_site_type_symbol
 _atom_site_label
 _atom_site_symmetry_multiplicity
 _atom_site_fract_x
 _atom_site_fract_y
 _atom_site_fract_z
 _atom_site_occupancy
  C  C0  4  0.15789952  0.57452170  0.29670732  1
  C  C1  4  0.21951073  0.67545737  0.58122103  1
  C  C2  4  0.26311515  0.65513271  0.48024790  1
  C  C3  4  0.35224034  0.56822397  0.27028896  1
  C  C4  4  0.36914588  0.99115715  0.67958819  1
  C  C5  4  0.40756040  0.17148851  -0.02564237  1
  C  C6  4  0.45003944  0.65233078  0.45293464  1
  C  C7  4  0.46358516  0.51869216  0.87188675  1
  S  S8  4  0.06223218  0.64026365  0.40481394  1
  S  S9  4  0.14348397  0.47226506  0.13591968  1
  S  S10  4  0.45465565  0.13185882  0.16583009  1
  N  N11  4  0.03498065  0.52693516  0.23370963  1
  N  N12  4  0.18628866  0.80690660  1.16443191  1
  N  N13  4  0.28744505  0.31178828  0.41607198  1
  N  N14  4  0.32634300  -0.04327405  0.41545918  1
