###############################################################################################
#
# CIF file generated by modified CIFWriter class 
# in pymatgen (v2025.03.10) https://pymatgen.org/
#
###############################################################################################
data_PBE+MBD_tight_27833e83823fb23
_symmetry_space_group_name_H-M   P2_12_12
_cell_length_a   12.72915240
_cell_length_b   12.08010378
_cell_length_c   7.16411671
_cell_angle_alpha   90.00000000
_cell_angle_beta   90.00000000
_cell_angle_gamma   90.00000000
_symmetry_Int_Tables_number   18
_chemical_formula_moiety   'C8 N4 S3'
_chemical_formula_sum   'C32 S12 N16'
_cell_volume   1101.62251464
_cell_formula_units_Z   4
loop_
 _symmetry_equiv_pos_site_id
 _symmetry_equiv_pos_as_xyz
  1  'x, y, z'
  2  '-x, -y, z'
  3  '-x+1/2, y+1/2, -z'
  4  'x+1/2, -y+1/2, -z'
loop_
 _atom_site_type_symbol
 _atom_site_label
 _atom_site_symmetry_multiplicity
 _atom_site_fract_x
 _atom_site_fract_y
 _atom_site_fract_z
 _atom_site_occupancy
  C  C0  4  -0.08781605  0.78598698  0.65633480  1
  C  C1  4  -0.03402000  0.81689831  0.81932018  1
  C  C2  4  0.07151786  0.84441815  0.83516323  1
  C  C3  4  0.09543299  0.86737261  1.02484610  1
  C  C4  4  0.14636882  0.54464431  0.05083201  1
  C  C5  4  0.19441181  0.49431070  0.41953317  1
  C  C6  4  0.22271778  0.46278432  0.09072789  1
  C  C7  4  0.24621424  0.43774693  0.27246713  1
  S  S8  4  -0.08984261  0.81867257  1.04063254  1
  S  S9  4  0.16262845  0.83709356  0.65305750  1
  S  S10  4  0.22176930  0.90055232  1.10900718  1
  N  N11  4  -0.13199776  0.76041998  0.52043738  1
  N  N12  4  0.01792126  0.85965949  1.14638678  1
  N  N13  4  0.08275902  0.61128876  0.01851091  1
  N  N14  4  0.15286674  0.54083344  0.54162659  1
