###############################################################################################
#
# CIF file generated by modified CIFWriter class 
# in pymatgen (v2025.03.10) https://pymatgen.org/
#
###############################################################################################
data_PBE+MBD_tight_2883c6cc078a81f
_symmetry_space_group_name_H-M   P2_1/c
_cell_length_a   6.93436808
_cell_length_b   14.06858439
_cell_length_c   11.19057575
_cell_angle_alpha   90.00000000
_cell_angle_beta   92.48089295
_cell_angle_gamma   90.00000000
_symmetry_Int_Tables_number   14
_chemical_formula_moiety   'C8 N4 S3'
_chemical_formula_sum   'C32 S12 N16'
_cell_volume   1090.69286598
_cell_formula_units_Z   4
loop_
 _symmetry_equiv_pos_site_id
 _symmetry_equiv_pos_as_xyz
  1  'x, y, z'
  2  '-x, -y, -z'
  3  '-x, y+1/2, -z+1/2'
  4  'x, -y+1/2, z+1/2'
loop_
 _atom_site_type_symbol
 _atom_site_label
 _atom_site_symmetry_multiplicity
 _atom_site_fract_x
 _atom_site_fract_y
 _atom_site_fract_z
 _atom_site_occupancy
  C  C0  4  0.04869215  0.29211989  0.80673096  1
  C  C1  4  0.07425999  0.49319456  0.81781329  1
  C  C2  4  0.22274895  0.34033774  0.78522200  1
  C  C3  4  0.23845636  0.43727475  0.79371680  1
  C  C4  4  0.33164520  0.79677975  0.46631530  1
  C  C5  4  0.34584224  0.70096007  0.43278382  1
  C  C6  4  0.43564457  0.56673266  0.33133909  1
  C  C7  4  0.45643800  0.83329577  0.84162804  1
  S  S8  4  0.22474680  0.89407869  0.99406496  1
  S  S9  4  0.40867011  0.23918045  0.25002334  1
  S  S10  4  0.45136906  0.50347178  0.77609867  1
  N  N11  4  -0.08780521  0.25290424  0.32586272  1
  N  N12  4  -0.06080387  -0.04005429  0.33416253  1
  N  N13  4  0.31967137  0.97431083  0.90649603  1
  N  N14  4  0.32675863  0.62251715  0.98970460  1
