###############################################################################################
#
# CIF file generated by modified CIFWriter class 
# in pymatgen (v2025.03.10) https://pymatgen.org/
#
###############################################################################################
data_PBE+MBD_tight_2a073ef56a460e0
_symmetry_space_group_name_H-M   P2_1/c
_cell_length_a   7.12612235
_cell_length_b   7.08779243
_cell_length_c   20.01923386
_cell_angle_alpha   90.00000000
_cell_angle_beta   91.51439690
_cell_angle_gamma   90.00000000
_symmetry_Int_Tables_number   14
_chemical_formula_moiety   'C8 N4 S3'
_chemical_formula_sum   'C32 S12 N16'
_cell_volume   1010.78781855
_cell_formula_units_Z   4
loop_
 _symmetry_equiv_pos_site_id
 _symmetry_equiv_pos_as_xyz
  1  'x, y, z'
  2  '-x, -y, -z'
  3  '-x, y+1/2, -z+1/2'
  4  'x, -y+1/2, z+1/2'
loop_
 _atom_site_type_symbol
 _atom_site_label
 _atom_site_symmetry_multiplicity
 _atom_site_fract_x
 _atom_site_fract_y
 _atom_site_fract_z
 _atom_site_occupancy
  C  C0  4  0.07406361  0.61265548  0.60885192  1
  C  C1  4  0.07732132  0.82768279  0.72647148  1
  C  C2  4  0.24480550  0.68502590  0.63589213  1
  C  C3  4  0.24609013  0.70723582  0.19266138  1
  C  C4  4  0.28055328  0.14430794  0.51245320  1
  C  C5  4  0.31605508  0.07903429  0.44777485  1
  C  C6  4  0.43088238  0.15881835  0.40044773  1
  C  C7  4  0.43104485  0.45652176  0.84257258  1
  S  S8  4  0.21898268  0.62660053  0.91496889  1
  S  S9  4  0.44700663  0.89777263  0.73007496  1
  S  S10  4  0.44731989  0.87213728  0.09062470  1
  N  N11  4  -0.06737707  0.94358357  0.08595770  1
  N  N12  4  -0.06037015  0.85678842  0.75492678  1
  N  N13  4  0.25277100  0.30673736  1.06698186  1
  N  N14  4  0.32807366  -0.11163564  0.34384446  1
