###############################################################################################
#
# CIF file generated by modified CIFWriter class 
# in pymatgen (v2025.03.10) https://pymatgen.org/
#
###############################################################################################
data_PBE+MBD_tight_2e7d7b3d40438d3
_symmetry_space_group_name_H-M   P4
_cell_length_a   16.76547285
_cell_length_b   16.76547285
_cell_length_c   4.00157238
_cell_angle_alpha   90.00000000
_cell_angle_beta   90.00000000
_cell_angle_gamma   90.00000000
_symmetry_Int_Tables_number   75
_chemical_formula_moiety   'C8 N4 S3'
_chemical_formula_sum   'C32 S12 N16'
_cell_volume   1124.76628587
_cell_formula_units_Z   4
loop_
 _symmetry_equiv_pos_site_id
 _symmetry_equiv_pos_as_xyz
  1  'x, y, z'
  2  '-y, x, z'
  3  '-x, -y, z'
  4  'y, -x, z'
loop_
 _atom_site_type_symbol
 _atom_site_label
 _atom_site_symmetry_multiplicity
 _atom_site_fract_x
 _atom_site_fract_y
 _atom_site_fract_z
 _atom_site_occupancy
  C  C0  4  0.03596230  0.75155379  0.70831229  1
  C  C1  4  0.09007800  0.69656640  0.57014180  1
  C  C2  4  0.15004269  0.34738003  0.65962094  1
  C  C3  4  0.16608690  0.71223388  0.44671495  1
  C  C4  4  0.20428987  0.63954326  0.35913132  1
  C  C5  4  0.21315373  0.30683854  0.49711469  1
  C  C6  4  0.28450912  0.34424591  0.43966549  1
  C  C7  4  0.29979732  0.42022808  0.58053824  1
  S  S8  4  0.07329476  0.59430027  0.54512811  1
  S  S9  4  0.19230916  0.20675245  0.39061912  1
  S  S10  4  0.30394787  0.63409563  0.21676762  1
  N  N11  4  -0.00801761  0.79614270  0.83533360  1
  N  N12  4  0.09639297  0.37984611  0.78594046  1
  N  N13  4  0.16255058  0.57343213  0.39864624  1
  N  N14  4  0.31440642  0.48059100  0.71175521  1
