###############################################################################################
#
# CIF file generated by modified CIFWriter class 
# in pymatgen (v2025.03.10) https://pymatgen.org/
#
###############################################################################################
data_PBE+MBD_tight_3bba9fb96961ac4
_symmetry_space_group_name_H-M   P2_12_12_1
_cell_length_a   7.15539369
_cell_length_b   22.27578944
_cell_length_c   6.54452406
_cell_angle_alpha   90.00000000
_cell_angle_beta   90.00000000
_cell_angle_gamma   90.00000000
_symmetry_Int_Tables_number   19
_chemical_formula_moiety   'C8 N4 S3'
_chemical_formula_sum   'C32 S12 N16'
_cell_volume   1043.14506151
_cell_formula_units_Z   4
loop_
 _symmetry_equiv_pos_site_id
 _symmetry_equiv_pos_as_xyz
  1  'x, y, z'
  2  '-x, y+1/2, -z+1/2'
  3  '-x+1/2, -y, z+1/2'
  4  'x+1/2, -y+1/2, -z'
loop_
 _atom_site_type_symbol
 _atom_site_label
 _atom_site_symmetry_multiplicity
 _atom_site_fract_x
 _atom_site_fract_y
 _atom_site_fract_z
 _atom_site_occupancy
  C  C0  4  -0.09465734  0.76115005  0.39851067  1
  C  C1  4  -0.06247984  0.05450569  0.53867209  1
  C  C2  4  -0.02077106  0.81336627  0.30571494  1
  C  C3  4  0.05999775  0.81043839  0.11682962  1
  C  C4  4  0.06168258  0.06344474  0.70225546  1
  C  C5  4  0.06887776  0.75522835  0.01033193  1
  C  C6  4  0.18404826  0.91059208  0.39715323  1
  C  C7  4  0.23257818  0.09305729  0.70088240  1
  S  S8  4  -0.03632313  0.87901152  0.45536673  1
  S  S9  4  0.02461762  0.03443153  0.94479064  1
  S  S10  4  0.16557844  0.87153085  -0.01030735  1
  N  N11  4  -0.16434305  0.04525537  0.40307181  1
  N  N12  4  -0.15540962  0.71824429  0.47582883  1
  N  N13  4  0.07693631  0.70995134  -0.07886438  1
  N  N14  4  0.22122230  0.06060899  1.03995698  1
