###############################################################################################
#
# CIF file generated by modified CIFWriter class 
# in pymatgen (v2025.03.10) https://pymatgen.org/
#
###############################################################################################
data_PBE+MBD_tight_3d436fda3d0632c
_symmetry_space_group_name_H-M   P-4
_cell_length_a   12.00220014
_cell_length_b   12.00220014
_cell_length_c   8.05521490
_cell_angle_alpha   90.00000000
_cell_angle_beta   90.00000000
_cell_angle_gamma   90.00000000
_symmetry_Int_Tables_number   81
_chemical_formula_moiety   'C8 N4 S3'
_chemical_formula_sum   'C32 S12 N16'
_cell_volume   1160.37632763
_cell_formula_units_Z   4
loop_
 _symmetry_equiv_pos_site_id
 _symmetry_equiv_pos_as_xyz
  1  'x, y, z'
  2  'y, -x, -z'
  3  '-x, -y, z'
  4  '-y, x, -z'
loop_
 _atom_site_type_symbol
 _atom_site_label
 _atom_site_symmetry_multiplicity
 _atom_site_fract_x
 _atom_site_fract_y
 _atom_site_fract_z
 _atom_site_occupancy
  C  C0  4  0.01619162  0.85739983  0.28474785  1
  C  C1  4  0.10408395  0.38648332  1.13715813  1
  C  C2  4  0.11873452  0.37836744  0.96323410  1
  C  C3  4  0.12092923  0.81493410  0.32946213  1
  C  C4  4  0.15431063  0.22731987  0.72190260  1
  C  C5  4  0.17860453  0.45713648  0.87880653  1
  C  C6  4  0.21995077  0.30751797  0.63701155  1
  C  C7  4  0.22216280  0.55183403  0.96139584  1
  S  S8  4  0.05365114  0.26100116  0.87163608  1
  S  S9  4  0.13341022  0.70930247  0.47482596  1
  S  S10  4  0.20779801  0.45288641  0.66486676  1
  N  N11  4  -0.07280432  0.89023818  0.25367896  1
  N  N12  4  0.09045466  0.39152898  1.28036786  1
  N  N13  4  0.25584394  0.63245267  1.02478212  1
  N  N14  4  0.26979649  0.70479048  0.46852033  1
