###############################################################################################
#
# CIF file generated by modified CIFWriter class 
# in pymatgen (v2025.03.10) https://pymatgen.org/
#
###############################################################################################
data_PBE+MBD_tight_3f7bd8a77523dac
_symmetry_space_group_name_H-M   Pca2_1
_cell_length_a   13.00767830
_cell_length_b   6.42157973
_cell_length_c   13.28622879
_cell_angle_alpha   90.00000000
_cell_angle_beta   90.00000000
_cell_angle_gamma   90.00000000
_symmetry_Int_Tables_number   29
_chemical_formula_moiety   'C8 N4 S3'
_chemical_formula_sum   'C32 S12 N16'
_cell_volume   1109.79660853
_cell_formula_units_Z   4
loop_
 _symmetry_equiv_pos_site_id
 _symmetry_equiv_pos_as_xyz
  1  'x, y, z'
  2  '-x, -y, z+1/2'
  3  '-x+1/2, y, z+1/2'
  4  'x+1/2, -y, z'
loop_
 _atom_site_type_symbol
 _atom_site_label
 _atom_site_symmetry_multiplicity
 _atom_site_fract_x
 _atom_site_fract_y
 _atom_site_fract_z
 _atom_site_occupancy
  C  C0  4  -0.01786535  0.56641690  -0.07619155  1
  C  C1  4  0.02764673  0.95777624  0.29771919  1
  C  C2  4  0.06913556  0.62321372  -0.01871148  1
  C  C3  4  0.10645682  0.97656358  0.22593520  1
  C  C4  4  0.12334605  0.84690643  0.14383949  1
  C  C5  4  0.15911756  0.67291092  -0.06669471  1
  C  C6  4  0.16667696  0.64408239  -0.17220360  1
  C  C7  4  0.21351634  0.91070870  0.09236836  1
  S  S8  4  0.04650451  0.63311904  0.11217364  1
  S  S9  4  0.20391894  1.16173501  0.22993136  1
  S  S10  4  0.23065847  0.77819177  0.48980662  1
  N  N11  4  -0.09092591  0.52487360  -0.12302154  1
  N  N12  4  -0.03725574  0.93689542  0.35749165  1
  N  N13  4  0.17294098  0.61479168  -0.25859308  1
  N  N14  4  0.23776770  1.07485894  0.62850211  1
