###############################################################################################
#
# CIF file generated by modified CIFWriter class 
# in pymatgen (v2025.03.10) https://pymatgen.org/
#
###############################################################################################
data_PBE+MBD_tight_40065409d102a4f
_symmetry_space_group_name_H-M   P2_12_12
_cell_length_a   9.15324331
_cell_length_b   21.87601043
_cell_length_c   5.41003242
_cell_angle_alpha   90.00000000
_cell_angle_beta   90.00000000
_cell_angle_gamma   90.00000000
_symmetry_Int_Tables_number   18
_chemical_formula_moiety   'C8 N4 S3'
_chemical_formula_sum   'C32 S12 N16'
_cell_volume   1083.28566362
_cell_formula_units_Z   4
loop_
 _symmetry_equiv_pos_site_id
 _symmetry_equiv_pos_as_xyz
  1  'x, y, z'
  2  '-x, -y, z'
  3  'x+1/2, -y+1/2, -z'
  4  '-x+1/2, y+1/2, -z'
loop_
 _atom_site_type_symbol
 _atom_site_label
 _atom_site_symmetry_multiplicity
 _atom_site_fract_x
 _atom_site_fract_y
 _atom_site_fract_z
 _atom_site_occupancy
  C  C0  4  -0.03478902  0.22458570  0.54701523  1
  C  C1  4  0.03619856  0.18763356  0.72517628  1
  C  C2  4  0.08923716  0.56930202  -0.35014727  1
  C  C3  4  0.11875136  0.21442281  0.90595668  1
  C  C4  4  0.13329925  0.27891534  0.91963707  1
  C  C5  4  0.13959209  0.07466661  0.85284445  1
  C  C6  4  0.18582932  0.55970303  -0.15177885  1
  C  C7  4  0.22332834  0.10277898  1.04229371  1
  S  S8  4  -0.00149118  0.10932117  0.67999823  1
  S  S9  4  0.21170244  0.48969700  -0.00755349  1
  S  S10  4  0.21847318  0.17869100  1.14113933  1
  N  N11  4  -0.09586461  0.25359277  0.39850810  1
  N  N12  4  0.00954925  0.57695353  -0.51568033  1
  N  N13  4  0.14866087  0.33155884  0.94107910  1
  N  N14  4  0.16534123  0.01606656  0.81247668  1
