###############################################################################################
#
# CIF file generated by modified CIFWriter class 
# in pymatgen (v2025.03.10) https://pymatgen.org/
#
###############################################################################################
data_PBE+MBD_tight_429d34c0efa2cc6
_symmetry_space_group_name_H-M   P2_1/c
_cell_length_a   9.47575298
_cell_length_b   11.85037665
_cell_length_c   10.03646238
_cell_angle_alpha   90.00000000
_cell_angle_beta   70.18551164
_cell_angle_gamma   90.00000000
_symmetry_Int_Tables_number   14
_chemical_formula_moiety   'C8 N4 S3'
_chemical_formula_sum   'C32 S12 N16'
_cell_volume   1060.28247782
_cell_formula_units_Z   4
loop_
 _symmetry_equiv_pos_site_id
 _symmetry_equiv_pos_as_xyz
  1  'x, y, z'
  2  '-x, -y, -z'
  3  '-x, y+1/2, -z+1/2'
  4  'x, -y+1/2, z+1/2'
loop_
 _atom_site_type_symbol
 _atom_site_label
 _atom_site_symmetry_multiplicity
 _atom_site_fract_x
 _atom_site_fract_y
 _atom_site_fract_z
 _atom_site_occupancy
  C  C0  4  0.16457390  0.05278419  0.75048936  1
  C  C1  4  0.16719910  0.52725905  0.14623373  1
  C  C2  4  0.24305707  0.17682273  0.88668588  1
  C  C3  4  0.28938707  0.09804610  0.77399702  1
  C  C4  4  0.31473265  0.98823384  0.21665288  1
  C  C5  4  0.40778614  0.66017321  0.48751052  1
  C  C6  4  0.43751738  0.58516214  0.69989651  1
  C  C7  4  0.48200934  0.84066769  0.08866592  1
  S  S8  4  0.00539463  0.11543784  0.86813325  1
  S  S9  4  0.36856549  0.25587021  0.94548524  1
  S  S10  4  0.47558505  0.43162320  0.17180091  1
  N  N11  4  0.09753338  0.19284433  0.94717897  1
  N  N12  4  0.17707073  0.59274740  0.05675258  1
  N  N13  4  0.21392651  1.04886671  0.22943179  1
  N  N14  4  0.34878073  0.84068933  -0.09738276  1
