###############################################################################################
#
# CIF file generated by modified CIFWriter class 
# in pymatgen (v2025.03.10) https://pymatgen.org/
#
###############################################################################################
data_PBE+MBD_tight_42ecd60d5c7a45
_symmetry_space_group_name_H-M   P2_1/c
_cell_length_a   8.95291813
_cell_length_b   10.19364449
_cell_length_c   12.55615800
_cell_angle_alpha   90.00000000
_cell_angle_beta   80.60509640
_cell_angle_gamma   90.00000000
_symmetry_Int_Tables_number   14
_chemical_formula_moiety   'C8 N4 S3'
_chemical_formula_sum   'C32 S12 N16'
_cell_volume   1130.54048237
_cell_formula_units_Z   4
loop_
 _symmetry_equiv_pos_site_id
 _symmetry_equiv_pos_as_xyz
  1  'x, y, z'
  2  '-x, -y, -z'
  3  '-x, y+1/2, -z+1/2'
  4  'x, -y+1/2, z+1/2'
loop_
 _atom_site_type_symbol
 _atom_site_label
 _atom_site_symmetry_multiplicity
 _atom_site_fract_x
 _atom_site_fract_y
 _atom_site_fract_z
 _atom_site_occupancy
  C  C0  4  -0.20357479  0.82895650  1.01567432  1
  C  C1  4  -0.12298954  1.04006129  0.87545127  1
  C  C2  4  -0.07797455  0.68081329  0.43142862  1
  C  C3  4  -0.03615930  0.92308443  0.86381037  1
  C  C4  4  0.20218578  0.78181428  0.38017657  1
  C  C5  4  0.24694192  0.67560273  0.30949849  1
  C  C6  4  0.32752851  0.95194935  0.47634196  1
  C  C7  4  0.32925627  0.84476683  0.40596898  1
  S  S8  4  0.01609669  0.66667805  0.92487675  1
  S  S9  4  0.11921012  0.56998229  0.25798569  1
  S  S10  4  0.48912668  0.76852339  0.33659905  1
  N  N11  4  -0.30566685  0.66407462  0.58625785  1
  N  N12  4  -0.19337110  1.13693134  0.88280958  1
  N  N13  4  0.32115075  1.04025727  0.53593374  1
  N  N14  4  0.39399542  0.65685579  0.28116439  1
