###############################################################################################
#
# CIF file generated by modified CIFWriter class 
# in pymatgen (v2025.03.10) https://pymatgen.org/
#
###############################################################################################
data_PBE+MBD_tight_4b9dbc2201b1a28
_symmetry_space_group_name_H-M   Pna2_1
_cell_length_a   6.33027287
_cell_length_b   18.71802801
_cell_length_c   8.68174170
_cell_angle_alpha   90.00000000
_cell_angle_beta   90.00000000
_cell_angle_gamma   90.00000000
_symmetry_Int_Tables_number   33
_chemical_formula_moiety   'C8 N4 S3'
_chemical_formula_sum   'C32 S12 N16'
_cell_volume   1028.70152707
_cell_formula_units_Z   4
loop_
 _symmetry_equiv_pos_site_id
 _symmetry_equiv_pos_as_xyz
  1  'x, y, z'
  2  '-x, -y, z+1/2'
  3  '-x+1/2, y+1/2, z+1/2'
  4  'x+1/2, -y+1/2, z'
loop_
 _atom_site_type_symbol
 _atom_site_label
 _atom_site_symmetry_multiplicity
 _atom_site_fract_x
 _atom_site_fract_y
 _atom_site_fract_z
 _atom_site_occupancy
  C  C0  4  -0.01627746  0.84352549  0.56393066  1
  C  C1  4  -0.00192232  0.65054078  -0.07867975  1
  C  C2  4  0.12661091  0.35648294  -0.11395355  1
  C  C3  4  0.12858435  1.04118702  0.64126496  1
  C  C4  4  0.13148674  0.89946491  0.58411301  1
  C  C5  4  0.16502621  0.61868850  0.00289319  1
  C  C6  4  0.18359958  0.54846611  0.05391661  1
  C  C7  4  0.18725649  0.40627209  0.00027449  1
  S  S8  4  0.00611180  0.47801779  0.02261961  1
  S  S9  4  0.05182665  0.96035423  0.72890106  1
  S  S10  4  0.12128652  1.16702055  0.57106195  1
  N  N11  4  -0.15036524  0.80094770  0.55586111  1
  N  N12  4  -0.14189252  0.67831924  -0.14219607  1
  N  N13  4  0.00945334  1.09874372  0.65737829  1
  N  N14  4  0.06899823  0.31743523  -0.20969208  1
