###############################################################################################
#
# CIF file generated by modified CIFWriter class 
# in pymatgen (v2025.03.10) https://pymatgen.org/
#
###############################################################################################
data_PBE+MBD_tight_4f1ec1aa7cefa3a
_symmetry_space_group_name_H-M   P2_12_12
_cell_length_a   6.81534358
_cell_length_b   17.13287094
_cell_length_c   9.76492241
_cell_angle_alpha   90.00000000
_cell_angle_beta   90.00000000
_cell_angle_gamma   90.00000000
_symmetry_Int_Tables_number   18
_chemical_formula_moiety   'C8 N4 S3'
_chemical_formula_sum   'C32 S12 N16'
_cell_volume   1140.21485534
_cell_formula_units_Z   4
loop_
 _symmetry_equiv_pos_site_id
 _symmetry_equiv_pos_as_xyz
  1  'x, y, z'
  2  '-x, -y, z'
  3  'x+1/2, -y+1/2, -z'
  4  '-x+1/2, y+1/2, -z'
loop_
 _atom_site_type_symbol
 _atom_site_label
 _atom_site_symmetry_multiplicity
 _atom_site_fract_x
 _atom_site_fract_y
 _atom_site_fract_z
 _atom_site_occupancy
  C  C0  4  0.24767009  0.26822462  0.61773865  1
  C  C1  4  0.24841774  0.22581893  0.74275539  1
  C  C2  4  0.24875571  0.21999210  1.02274296  1
  C  C3  4  0.24890753  0.14584203  0.73724614  1
  C  C4  4  0.24915277  0.10856245  0.60760138  1
  C  C5  4  0.24940077  0.13715188  1.01659991  1
  C  C6  4  0.24953690  0.10678743  1.14868101  1
  C  C7  4  0.24995720  0.02721434  1.18349503  1
  S  S8  4  0.24847936  0.28739161  0.88639547  1
  S  S9  4  0.24866133  0.18310150  1.26536550  1
  S  S10  4  0.24961892  0.07737835  0.87113390  1
  N  N11  4  0.24697746  0.30270989  0.51476514  1
  N  N12  4  0.24847040  0.25129255  1.14628054  1
  N  N13  4  0.24946521  0.07770275  0.50121247  1
  N  N14  4  0.24949682  0.46058451  -0.20751576  1
