###############################################################################################
#
# CIF file generated by modified CIFWriter class 
# in pymatgen (v2025.03.10) https://pymatgen.org/
#
###############################################################################################
data_PBE+MBD_tight_4f29902e5f3b3a6
_symmetry_space_group_name_H-M   P2/c
_cell_length_a   16.03828904
_cell_length_b   12.00181680
_cell_length_c   6.87059128
_cell_angle_alpha   90.00000000
_cell_angle_beta   121.49871663
_cell_angle_gamma   90.00000000
_symmetry_Int_Tables_number   13
_chemical_formula_moiety   'C8 N4 S3'
_chemical_formula_sum   'C32 S12 N16'
_cell_volume   1127.64108462
_cell_formula_units_Z   4
loop_
 _symmetry_equiv_pos_site_id
 _symmetry_equiv_pos_as_xyz
  1  'x, y, z'
  2  '-x, -y, -z'
  3  '-x, y, -z+1/2'
  4  'x, -y, z+1/2'
loop_
 _atom_site_type_symbol
 _atom_site_label
 _atom_site_symmetry_multiplicity
 _atom_site_fract_x
 _atom_site_fract_y
 _atom_site_fract_z
 _atom_site_occupancy
  C  C0  4  0.13786519  0.33734071  0.40628410  1
  C  C1  4  0.19114927  0.32565474  0.64706868  1
  C  C2  4  0.20785304  0.79477896  0.49683287  1
  C  C3  4  0.28981440  0.34582199  0.77000207  1
  C  C4  4  0.30968226  0.22786119  1.12037420  1
  C  C5  4  0.34032943  0.37028046  0.65708537  1
  C  C6  4  0.35868008  0.14943395  1.29247472  1
  C  C7  4  0.45978756  0.85991226  0.94770683  1
  S  S8  4  0.12073226  0.71282660  0.26546489  1
  S  S9  4  0.27251761  0.94025922  0.78666290  1
  S  S10  4  0.36241308  0.34329893  1.07121116  1
  N  N11  4  0.09370189  0.34980103  0.20887788  1
  N  N12  4  0.17824788  0.11875661  1.06452794  1
  N  N13  4  0.38169146  0.60994039  0.06307415  1
  N  N14  4  0.45624765  0.13042517  -0.07407820  1
