###############################################################################################
#
# CIF file generated by modified CIFWriter class 
# in pymatgen (v2025.03.10) https://pymatgen.org/
#
###############################################################################################
data_PBE+MBD_tight_5039a563c4e975b
_symmetry_space_group_name_H-M   Pna2_1
_cell_length_a   7.71608887
_cell_length_b   10.29507493
_cell_length_c   13.22554822
_cell_angle_alpha   90.00000000
_cell_angle_beta   90.00000000
_cell_angle_gamma   90.00000000
_symmetry_Int_Tables_number   33
_chemical_formula_moiety   'C8 N4 S3'
_chemical_formula_sum   'C32 S12 N16'
_cell_volume   1050.60730507
_cell_formula_units_Z   4
loop_
 _symmetry_equiv_pos_site_id
 _symmetry_equiv_pos_as_xyz
  1  'x, y, z'
  2  '-x, -y, z+1/2'
  3  '-x+1/2, y+1/2, z+1/2'
  4  'x+1/2, -y+1/2, z'
loop_
 _atom_site_type_symbol
 _atom_site_label
 _atom_site_symmetry_multiplicity
 _atom_site_fract_x
 _atom_site_fract_y
 _atom_site_fract_z
 _atom_site_occupancy
  C  C0  4  -0.07407787  -0.05983568  0.28897145  1
  C  C1  4  -0.02360754  -0.06236546  0.18554822  1
  C  C2  4  0.13415435  0.67497315  0.69661791  1
  C  C3  4  0.13886820  0.57834517  0.38115177  1
  C  C4  4  0.21040896  0.07581635  0.33499406  1
  C  C5  4  0.22453310  0.67372054  0.90000885  1
  C  C6  4  0.24243508  0.57562387  0.73521547  1
  C  C7  4  0.24780817  0.57863184  0.29597026  1
  S  S8  4  0.06886344  -0.03883239  0.39060923  1
  S  S9  4  0.16621337  0.60165582  0.17494316  1
  S  S10  4  0.19167947  -0.03943676  0.14413283  1
  N  N11  4  -0.14677428  -0.08181655  0.11801328  1
  N  N12  4  0.04078181  0.57653274  0.44828704  1
  N  N13  4  0.04370942  0.75541129  0.66404155  1
  N  N14  4  0.16676964  0.75415775  0.95215199  1
