###############################################################################################
#
# CIF file generated by modified CIFWriter class 
# in pymatgen (v2025.03.10) https://pymatgen.org/
#
###############################################################################################
data_PBE+MBD_tight_50897418e6cfa60
_symmetry_space_group_name_H-M   P2_1/c
_cell_length_a   4.48821079
_cell_length_b   11.37958600
_cell_length_c   24.77372855
_cell_angle_alpha   90.00000000
_cell_angle_beta   53.64730026
_cell_angle_gamma   90.00000000
_symmetry_Int_Tables_number   14
_chemical_formula_moiety   'C8 N4 S3'
_chemical_formula_sum   'C32 S12 N16'
_cell_volume   1019.04594685
_cell_formula_units_Z   4
loop_
 _symmetry_equiv_pos_site_id
 _symmetry_equiv_pos_as_xyz
  1  'x, y, z'
  2  '-x, -y, -z'
  3  '-x, y+1/2, -z+1/2'
  4  'x, -y+1/2, z+1/2'
loop_
 _atom_site_type_symbol
 _atom_site_label
 _atom_site_symmetry_multiplicity
 _atom_site_fract_x
 _atom_site_fract_y
 _atom_site_fract_z
 _atom_site_occupancy
  C  C0  4  -0.50666649  0.79277884  0.75612973  1
  C  C1  4  -0.17268301  0.77602931  0.69115421  1
  C  C2  4  0.03332981  0.53468053  0.20175302  1
  C  C3  4  0.08788071  0.63641081  0.16386731  1
  C  C4  4  0.10045003  0.15362678  0.57120550  1
  C  C5  4  0.15954455  0.67308561  0.56904627  1
  C  C6  4  0.37575234  0.26414743  1.02840888  1
  C  C7  4  0.42256833  0.76554880  0.54102941  1
  S  S8  4  -0.15027477  0.63986735  0.65505143  1
  S  S9  4  0.47653790  0.85335249  -0.05175728  1
  S  S10  4  0.48903700  0.13395276  0.41670994  1
  N  N11  4  -0.78391125  0.80787910  0.80887516  1
  N  N12  4  -0.11855306  0.41953749  1.10271711  1
  N  N13  4  0.00213518  0.45163558  0.23227055  1
  N  N14  4  0.15402168  0.89423189  0.02618649  1
