###############################################################################################
#
# CIF file generated by modified CIFWriter class 
# in pymatgen (v2025.03.10) https://pymatgen.org/
#
###############################################################################################
data_PBE+MBD_tight_52f6100bf83e23e
_symmetry_space_group_name_H-M   P2/c
_cell_length_a   7.43710655
_cell_length_b   11.14776194
_cell_length_c   13.44193483
_cell_angle_alpha   90.00000000
_cell_angle_beta   67.60980167
_cell_angle_gamma   90.00000000
_symmetry_Int_Tables_number   13
_chemical_formula_moiety   'C8 N4 S3'
_chemical_formula_sum   'C32 S12 N16'
_cell_volume   1030.41608487
_cell_formula_units_Z   4
loop_
 _symmetry_equiv_pos_site_id
 _symmetry_equiv_pos_as_xyz
  1  'x, y, z'
  2  '-x, -y, -z'
  3  '-x, y, -z+1/2'
  4  'x, -y, z+1/2'
loop_
 _atom_site_type_symbol
 _atom_site_label
 _atom_site_symmetry_multiplicity
 _atom_site_fract_x
 _atom_site_fract_y
 _atom_site_fract_z
 _atom_site_occupancy
  C  C0  4  0.23307693  0.90453826  0.92725698  1
  C  C1  4  0.23322841  0.50151644  0.43809281  1
  C  C2  4  0.26577545  0.51166409  0.63728523  1
  C  C3  4  0.27635335  0.61208349  0.47624179  1
  C  C4  4  0.29712265  0.61618676  0.57316762  1
  C  C5  4  0.31537447  0.87924991  1.00329261  1
  C  C6  4  0.48017035  0.18772342  0.49149032  1
  C  C7  4  0.49142437  0.18849358  -0.09026679  1
  S  S8  4  0.21934387  0.06349566  0.63341204  1
  S  S9  4  0.30240638  0.26621474  -0.11171949  1
  S  S10  4  0.36316079  0.25516218  0.12788678  1
  N  N11  4  0.16032219  0.92934285  0.86695571  1
  N  N12  4  0.19922594  0.41048746  0.40610071  1
  N  N13  4  0.23841218  0.57480548  0.18989239  1
  N  N14  4  0.38216767  0.87250737  1.17079723  1
