###############################################################################################
#
# CIF file generated by modified CIFWriter class 
# in pymatgen (v2025.03.10) https://pymatgen.org/
#
###############################################################################################
data_PBE+MBD_tight_541aa45ae1e1d03
_symmetry_space_group_name_H-M   P2_12_12_1
_cell_length_a   8.56334625
_cell_length_b   10.35873379
_cell_length_c   12.25383434
_cell_angle_alpha   90.00000000
_cell_angle_beta   90.00000000
_cell_angle_gamma   90.00000000
_symmetry_Int_Tables_number   19
_chemical_formula_moiety   'C8 N4 S3'
_chemical_formula_sum   'C32 S12 N16'
_cell_volume   1086.98157295
_cell_formula_units_Z   4
loop_
 _symmetry_equiv_pos_site_id
 _symmetry_equiv_pos_as_xyz
  1  'x, y, z'
  2  '-x+1/2, -y, z+1/2'
  3  'x+1/2, -y+1/2, -z'
  4  '-x, y+1/2, -z+1/2'
loop_
 _atom_site_type_symbol
 _atom_site_label
 _atom_site_symmetry_multiplicity
 _atom_site_fract_x
 _atom_site_fract_y
 _atom_site_fract_z
 _atom_site_occupancy
  C  C0  4  -0.14997504  0.90702913  0.78873692  1
  C  C1  4  -0.06645908  0.97093017  0.70602650  1
  C  C2  4  0.00225643  0.14596033  0.00334073  1
  C  C3  4  0.08486410  0.28695892  0.19603405  1
  C  C4  4  0.09455483  0.97179246  0.69213644  1
  C  C5  4  0.10031362  0.09225161  0.08441555  1
  C  C6  4  0.13413906  1.04300414  0.59726458  1
  C  C7  4  0.13908840  0.16025919  0.17600218  1
  S  S8  4  -0.14917250  1.06012454  0.60086044  1
  S  S9  4  0.16973497  -0.06500128  0.05613182  1
  S  S10  4  0.23143803  0.89687240  0.77693512  1
  N  N11  4  -0.21495252  0.85178685  0.85814524  1
  N  N12  4  -0.07854117  0.18710026  -0.06502124  1
  N  N13  4  0.01776849  1.09293754  0.54050944  1
  N  N14  4  0.04602203  0.39187003  0.21756478  1
