###############################################################################################
#
# CIF file generated by modified CIFWriter class 
# in pymatgen (v2025.03.10) https://pymatgen.org/
#
###############################################################################################
data_PBE+MBD_tight_5670bc33c6ad44f
_symmetry_space_group_name_H-M   P2_12_12_1
_cell_length_a   8.83389077
_cell_length_b   7.79694052
_cell_length_c   15.68621596
_cell_angle_alpha   90.00000000
_cell_angle_beta   90.00000000
_cell_angle_gamma   90.00000000
_symmetry_Int_Tables_number   19
_chemical_formula_moiety   'C8 N4 S3'
_chemical_formula_sum   'C32 S12 N16'
_cell_volume   1080.42453120
_cell_formula_units_Z   4
loop_
 _symmetry_equiv_pos_site_id
 _symmetry_equiv_pos_as_xyz
  1  'x, y, z'
  2  '-x+1/2, -y, z+1/2'
  3  '-x, y+1/2, -z+1/2'
  4  'x+1/2, -y+1/2, -z'
loop_
 _atom_site_type_symbol
 _atom_site_label
 _atom_site_symmetry_multiplicity
 _atom_site_fract_x
 _atom_site_fract_y
 _atom_site_fract_z
 _atom_site_occupancy
  C  C0  4  -0.09398399  1.06766690  0.52163721  1
  C  C1  4  -0.03192678  0.90407876  0.76019979  1
  C  C2  4  -0.02344230  0.90448976  0.66993796  1
  C  C3  4  0.01848787  0.96995492  0.47923322  1
  C  C4  4  0.05032090  1.04198867  0.40034418  1
  C  C5  4  0.09116493  0.82081847  0.62856405  1
  C  C6  4  0.14813405  0.97215204  0.33886293  1
  C  C7  4  0.21756805  0.75423384  0.67278208  1
  S  S8  4  -0.17500097  1.01279530  0.62094693  1
  S  S9  4  -0.06311290  1.22156913  0.38721175  1
  S  S10  4  0.09995170  0.78099666  0.51778899  1
  N  N11  4  -0.14497356  1.20472769  0.48119739  1
  N  N12  4  -0.04706328  0.89907357  0.83400110  1
  N  N13  4  0.17454718  0.29970874  0.20628357  1
  N  N14  4  0.22808106  0.90725646  0.28934603  1
