###############################################################################################
#
# CIF file generated by modified CIFWriter class 
# in pymatgen (v2025.03.10) https://pymatgen.org/
#
###############################################################################################
data_PBE+MBD_tight_56d2091c022eb17
_symmetry_space_group_name_H-M   P4_1
_cell_length_a   13.26588497
_cell_length_b   13.26588497
_cell_length_c   7.07651375
_cell_angle_alpha   90.00000000
_cell_angle_beta   90.00000000
_cell_angle_gamma   90.00000000
_symmetry_Int_Tables_number   76
_chemical_formula_moiety   'C8 N4 S3'
_chemical_formula_sum   'C32 S12 N16'
_cell_volume   1245.35110250
_cell_formula_units_Z   4
loop_
 _symmetry_equiv_pos_site_id
 _symmetry_equiv_pos_as_xyz
  1  'x, y, z'
  2  '-y, x, z+1/4'
  3  '-x, -y, z+1/2'
  4  'y, -x, z+3/4'
loop_
 _atom_site_type_symbol
 _atom_site_label
 _atom_site_symmetry_multiplicity
 _atom_site_fract_x
 _atom_site_fract_y
 _atom_site_fract_z
 _atom_site_occupancy
  C  C0  4  0.04645810  0.77393086  0.40347432  1
  C  C1  4  0.10288317  0.78074933  0.57110005  1
  C  C2  4  0.12267037  0.51426570  0.95937804  1
  C  C3  4  0.17725804  0.42452384  0.92352076  1
  C  C4  4  0.17875144  0.46570189  0.59199207  1
  C  C5  4  0.20274821  0.39929343  0.74203578  1
  C  C6  4  0.20599271  0.76786488  0.59624395  1
  C  C7  4  0.20805746  0.23191582  1.03520391  1
  S  S8  4  0.04991436  0.81599448  0.78552954  1
  S  S9  4  0.20879291  0.35532290  1.12774772  1
  S  S10  4  0.27153578  0.29149379  0.67264107  1
  N  N11  4  -0.00226862  0.77267864  0.26630909  1
  N  N12  4  0.07868910  0.58876352  0.98861994  1
  N  N13  4  0.15792164  0.81974027  0.89863629  1
  N  N14  4  0.16378261  0.52183731  0.46822091  1
