###############################################################################################
#
# CIF file generated by modified CIFWriter class 
# in pymatgen (v2025.03.10) https://pymatgen.org/
#
###############################################################################################
data_PBE+MBD_tight_580fcfba54c612b
_symmetry_space_group_name_H-M   Pca2_1
_cell_length_a   13.85103685
_cell_length_b   8.21045768
_cell_length_c   9.14160063
_cell_angle_alpha   90.00000000
_cell_angle_beta   90.00000000
_cell_angle_gamma   90.00000000
_symmetry_Int_Tables_number   29
_chemical_formula_moiety   'C8 N4 S3'
_chemical_formula_sum   'C32 S12 N16'
_cell_volume   1039.61346555
_cell_formula_units_Z   4
loop_
 _symmetry_equiv_pos_site_id
 _symmetry_equiv_pos_as_xyz
  1  'x, y, z'
  2  '-x, -y, z+1/2'
  3  '-x+1/2, y, z+1/2'
  4  'x+1/2, -y, z'
loop_
 _atom_site_type_symbol
 _atom_site_label
 _atom_site_symmetry_multiplicity
 _atom_site_fract_x
 _atom_site_fract_y
 _atom_site_fract_z
 _atom_site_occupancy
  C  C0  4  -0.01269689  0.57328650  0.77695267  1
  C  C1  4  0.07100698  0.64887697  0.71980578  1
  C  C2  4  0.13982550  0.39017270  0.64543424  1
  C  C3  4  0.14537940  0.56158737  0.66025513  1
  C  C4  4  0.17058208  1.12356373  0.95720877  1
  C  C5  4  0.19147074  0.89464037  0.77957575  1
  C  C6  4  0.22593394  1.01446990  0.87351131  1
  C  C7  4  0.23023006  0.80820237  0.21662083  1
  S  S8  4  0.07048308  0.86378544  0.73341848  1
  S  S9  4  0.14900380  1.00931707  0.36905550  1
  S  S10  4  0.24612441  0.64515817  0.09257069  1
  N  N11  4  -0.08257245  0.51776928  0.82769614  1
  N  N12  4  0.12299356  1.21174380  1.02656194  1
  N  N13  4  0.13714168  0.24962883  0.62808679  1
  N  N14  4  0.14252946  0.85618357  0.25360047  1
