###############################################################################################
#
# CIF file generated by modified CIFWriter class 
# in pymatgen (v2025.03.10) https://pymatgen.org/
#
###############################################################################################
data_PBE+MBD_tight_5a00231a50a450e
_symmetry_space_group_name_H-M   P2_1/c
_cell_length_a   8.19668783
_cell_length_b   15.32496020
_cell_length_c   11.26386557
_cell_angle_alpha   90.00000000
_cell_angle_beta   135.12054729
_cell_angle_gamma   90.00000000
_symmetry_Int_Tables_number   14
_chemical_formula_moiety   'C8 N4 S3'
_chemical_formula_sum   'C32 S12 N16'
_cell_volume   998.37696805
_cell_formula_units_Z   4
loop_
 _symmetry_equiv_pos_site_id
 _symmetry_equiv_pos_as_xyz
  1  'x, y, z'
  2  '-x, -y, -z'
  3  '-x, y+1/2, -z+1/2'
  4  'x, -y+1/2, z+1/2'
loop_
 _atom_site_type_symbol
 _atom_site_label
 _atom_site_symmetry_multiplicity
 _atom_site_fract_x
 _atom_site_fract_y
 _atom_site_fract_z
 _atom_site_occupancy
  C  C0  4  -0.82204808  0.08778080  0.04788770  1
  C  C1  4  -0.59581522  0.06524539  0.13135226  1
  C  C2  4  -0.41576197  0.37934411  0.69271227  1
  C  C3  4  -0.28043167  0.15956829  0.59570459  1
  C  C4  4  -0.23015326  0.23938500  0.67951680  1
  C  C5  4  -0.21764263  0.42967521  0.76503078  1
  C  C6  4  -0.03862920  0.28686377  0.74815845  1
  C  C7  4  0.11877580  0.24642520  0.24433684  1
  S  S8  4  -0.49784315  -0.04187683  0.17612353  1
  S  S9  4  -0.42656456  0.23473975  0.19273679  1
  S  S10  4  0.05009352  0.38700232  0.85502570  1
  N  N11  4  -1.01151321  0.39530986  0.47699809  1
  N  N12  4  -0.32608593  0.09357623  0.52610266  1
  N  N13  4  -0.23776178  0.51520217  0.76312689  1
  N  N14  4  0.25590300  0.22583001  0.74928083  1
