###############################################################################################
#
# CIF file generated by modified CIFWriter class 
# in pymatgen (v2025.03.10) https://pymatgen.org/
#
###############################################################################################
data_PBE+MBD_tight_5c422bd8a51598
_symmetry_space_group_name_H-M   Pna2_1
_cell_length_a   20.50980991
_cell_length_b   7.10386925
_cell_length_c   6.95241856
_cell_angle_alpha   90.00000000
_cell_angle_beta   90.00000000
_cell_angle_gamma   90.00000000
_symmetry_Int_Tables_number   33
_chemical_formula_moiety   'C8 N4 S3'
_chemical_formula_sum   'C32 S12 N16'
_cell_volume   1012.96048716
_cell_formula_units_Z   4
loop_
 _symmetry_equiv_pos_site_id
 _symmetry_equiv_pos_as_xyz
  1  'x, y, z'
  2  '-x, -y, z+1/2'
  3  '-x+1/2, y+1/2, z+1/2'
  4  'x+1/2, -y+1/2, z'
loop_
 _atom_site_type_symbol
 _atom_site_label
 _atom_site_symmetry_multiplicity
 _atom_site_fract_x
 _atom_site_fract_y
 _atom_site_fract_z
 _atom_site_occupancy
  C  C0  4  -0.14228087  0.75941641  0.35973698  1
  C  C1  4  -0.10109466  0.38706371  0.35799815  1
  C  C2  4  -0.07455659  0.71896812  0.35896566  1
  C  C3  4  -0.05466626  0.53458357  0.35817609  1
  C  C4  4  0.05331093  0.83297471  0.35953397  1
  C  C5  4  0.07344243  0.64240816  0.35873236  1
  C  C6  4  0.14131529  0.63322922  0.35908663  1
  C  C7  4  0.17693744  0.46380476  0.35907029  1
  S  S8  4  -0.02687458  0.92316682  0.35931236  1
  S  S9  4  0.02452691  0.43968041  0.35744082  1
  S  S10  4  0.17265960  0.86017048  0.36004860  1
  N  N11  4  -0.19778503  0.79376398  0.36045802  1
  N  N12  4  -0.13567363  0.25655059  0.35776861  1
  N  N13  4  0.10016847  0.96017837  0.36027584  1
  N  N14  4  0.20162461  0.31590176  0.35900295  1
