###############################################################################################
#
# CIF file generated by modified CIFWriter class 
# in pymatgen (v2025.03.10) https://pymatgen.org/
#
###############################################################################################
data_PBE+MBD_tight_5c77efdcd314bdc
_symmetry_space_group_name_H-M   P2_1/c
_cell_length_a   11.83892338
_cell_length_b   6.86535226
_cell_length_c   14.00662948
_cell_angle_alpha   90.00000000
_cell_angle_beta   120.39425771
_cell_angle_gamma   90.00000000
_symmetry_Int_Tables_number   14
_chemical_formula_moiety   'C8 N4 S3'
_chemical_formula_sum   'C32 S12 N16'
_cell_volume   981.97446702
_cell_formula_units_Z   4
loop_
 _symmetry_equiv_pos_site_id
 _symmetry_equiv_pos_as_xyz
  1  'x, y, z'
  2  '-x, -y, -z'
  3  '-x, y+1/2, -z+1/2'
  4  'x, -y+1/2, z+1/2'
loop_
 _atom_site_type_symbol
 _atom_site_label
 _atom_site_symmetry_multiplicity
 _atom_site_fract_x
 _atom_site_fract_y
 _atom_site_fract_z
 _atom_site_occupancy
  C  C0  4  -0.00264874  0.31003992  0.63158128  1
  C  C1  4  0.07004659  0.31294491  0.85204945  1
  C  C2  4  0.13049848  0.27736653  0.71240796  1
  C  C3  4  0.16601249  0.22074245  0.32196415  1
  C  C4  4  0.36983194  0.75660467  0.43544166  1
  C  C5  4  0.38692793  0.24286807  0.76944337  1
  C  C6  4  0.42348105  0.24565985  0.88287402  1
  C  C7  4  0.44063516  0.74746604  0.55168983  1
  S  S8  4  0.22761244  0.23333103  0.65344318  1
  S  S9  4  0.32101313  0.24092186  0.93913357  1
  S  S10  4  0.37272848  0.74192952  0.63666094  1
  N  N11  4  -0.11219719  0.16468045  0.06513543  1
  N  N12  4  -0.00598808  0.16143550  0.38042973  1
  N  N13  4  0.31650835  0.76782897  0.33915720  1
  N  N14  4  0.48357034  0.24314734  0.74832283  1
