###############################################################################################
#
# CIF file generated by modified CIFWriter class 
# in pymatgen (v2025.03.10) https://pymatgen.org/
#
###############################################################################################
data_PBE+MBD_tight_5cf1e41d17067d5
_symmetry_space_group_name_H-M   Pnnm
_cell_length_a   9.94472917
_cell_length_b   15.04505893
_cell_length_c   6.99424268
_cell_angle_alpha   90.00000000
_cell_angle_beta   90.00000000
_cell_angle_gamma   90.00000000
_symmetry_Int_Tables_number   58
_chemical_formula_moiety   'C8 N4 S3'
_chemical_formula_sum   'C32 S12 N16'
_cell_volume   1046.47185004
_cell_formula_units_Z   4
loop_
 _symmetry_equiv_pos_site_id
 _symmetry_equiv_pos_as_xyz
  1  'x, y, z'
  2  '-x, -y, -z+148/473'
  3  '-x, -y, z'
  4  'x, y, -z+148/473'
  5  'x+1/2, -y+1/2, -z+643/791'
  6  '-x+1/2, y+1/2, z+1/2'
  7  '-x+1/2, y+1/2, -z+643/791'
  8  'x+1/2, -y+1/2, z+1/2'
loop_
 _atom_site_type_symbol
 _atom_site_label
 _atom_site_symmetry_multiplicity
 _atom_site_fract_x
 _atom_site_fract_y
 _atom_site_fract_z
 _atom_site_occupancy
  C  C0  4  -0.22182746  0.59965194  0.15644784  1
  C  C1  4  -0.18530734  0.68994977  0.15644784  1
  C  C2  4  -0.05949829  0.81785656  0.15644784  1
  C  C3  4  -0.05475351  0.72328121  0.15644784  1
  C  C4  4  0.15294166  0.18753544  0.65644784  1
  C  C5  4  0.16050649  0.36555792  0.65644784  1
  C  C6  4  0.21494473  0.81951391  0.15644784  1
  C  C7  4  0.21814748  0.72806942  0.15644784  1
  S  S8  4  0.07756045  0.89200098  0.15644784  1
  S  S9  4  0.08450716  0.65210563  0.15644784  1
  S  S10  4  0.20139162  0.72194272  0.65644784  1
  N  N11  4  -0.24859749  0.52419882  0.15644784  1
  N  N12  4  -0.17983004  0.85460436  0.15644784  1
  N  N13  4  0.04376339  0.15924336  0.65644784  1
  N  N14  4  0.05652401  0.40147752  0.65644784  1
