###############################################################################################
#
# CIF file generated by modified CIFWriter class 
# in pymatgen (v2025.03.10) https://pymatgen.org/
#
###############################################################################################
data_PBE+MBD_tight_5f257ea0302bc35
_symmetry_space_group_name_H-M   P2_1/c
_cell_length_a   8.29718796
_cell_length_b   19.06255393
_cell_length_c   6.65796038
_cell_angle_alpha   90.00000000
_cell_angle_beta   83.46440463
_cell_angle_gamma   90.00000000
_symmetry_Int_Tables_number   14
_chemical_formula_moiety   'C8 N4 S3'
_chemical_formula_sum   'C32 S12 N16'
_cell_volume   1046.21676639
_cell_formula_units_Z   4
loop_
 _symmetry_equiv_pos_site_id
 _symmetry_equiv_pos_as_xyz
  1  'x, y, z'
  2  '-x, -y, -z'
  3  '-x, y+1/2, -z+1/2'
  4  'x, -y+1/2, z+1/2'
loop_
 _atom_site_type_symbol
 _atom_site_label
 _atom_site_symmetry_multiplicity
 _atom_site_fract_x
 _atom_site_fract_y
 _atom_site_fract_z
 _atom_site_occupancy
  C  C0  4  -0.05840920  0.32285886  1.14843572  1
  C  C1  4  0.05221941  0.37749697  1.09625513  1
  C  C2  4  0.16328590  0.38216858  0.92400120  1
  C  C3  4  0.25679973  0.05584764  0.43017534  1
  C  C4  4  0.33962007  0.88650909  0.89389621  1
  C  C5  4  0.39947051  0.32525751  0.66284731  1
  C  C6  4  0.46273026  0.24271337  0.12047497  1
  C  C7  4  0.49088552  0.38477873  0.66461403  1
  S  S8  4  0.07388437  0.45159237  1.24312949  1
  S  S9  4  0.18558679  0.32260632  0.72301208  1
  S  S10  4  0.41154296  0.46817683  0.73819160  1
  N  N11  4  -0.14588016  0.22397698  0.69134131  1
  N  N12  4  0.20194790  0.89393182  0.94719712  1
  N  N13  4  0.22336302  0.48533459  1.08867554  1
  N  N14  4  0.49813321  0.19849435  0.59370870  1
