###############################################################################################
#
# CIF file generated by modified CIFWriter class 
# in pymatgen (v2025.03.10) https://pymatgen.org/
#
###############################################################################################
data_PBE+MBD_tight_5ff2fb4407eff30
_symmetry_space_group_name_H-M   P-4
_cell_length_a   9.57042176
_cell_length_b   9.57042176
_cell_length_c   12.89460274
_cell_angle_alpha   90.00000000
_cell_angle_beta   90.00000000
_cell_angle_gamma   90.00000000
_symmetry_Int_Tables_number   81
_chemical_formula_moiety   'C8 N4 S3'
_chemical_formula_sum   'C32 S12 N16'
_cell_volume   1181.05499517
_cell_formula_units_Z   4
loop_
 _symmetry_equiv_pos_site_id
 _symmetry_equiv_pos_as_xyz
  1  'x, y, z'
  2  'y, -x, -z'
  3  '-x, -y, z'
  4  '-y, x, -z'
loop_
 _atom_site_type_symbol
 _atom_site_label
 _atom_site_symmetry_multiplicity
 _atom_site_fract_x
 _atom_site_fract_y
 _atom_site_fract_z
 _atom_site_occupancy
  C  C0  4  -0.06778677  0.82223656  0.26556458  1
  C  C1  4  -0.06650040  0.76815484  0.08402176  1
  C  C2  4  -0.00615034  0.75455450  0.18395609  1
  C  C3  4  0.08493208  -0.18176472  0.74844952  1
  C  C4  4  0.09604666  0.67471600  0.40169692  1
  C  C5  4  0.16232396  0.60858165  0.31559698  1
  C  C6  4  0.25020984  0.50391196  0.35222190  1
  C  C7  4  0.33826558  0.41507953  0.29520746  1
  S  S8  4  -0.01919662  0.81744357  0.39701439  1
  S  S9  4  0.14663810  0.65191442  0.18434267  1
  S  S10  4  0.24055674  0.49873285  0.48718396  1
  N  N11  4  -0.11882941  0.77920350  0.00285366  1
  N  N12  4  0.00101818  -0.27005509  0.75221850  1
  N  N13  4  0.12661089  0.62738062  0.49503835  1
  N  N14  4  0.34051139  0.58647570  0.74965384  1
