###############################################################################################
#
# CIF file generated by modified CIFWriter class 
# in pymatgen (v2025.03.10) https://pymatgen.org/
#
###############################################################################################
data_PBE+MBD_tight_64c7d4810531751
_symmetry_space_group_name_H-M   P2_1/c
_cell_length_a   8.48340457
_cell_length_b   11.09112956
_cell_length_c   12.89131345
_cell_angle_alpha   90.00000000
_cell_angle_beta   124.55130549
_cell_angle_gamma   90.00000000
_symmetry_Int_Tables_number   14
_chemical_formula_moiety   'C8 N4 S3'
_chemical_formula_sum   'C32 S12 N16'
_cell_volume   999.00878745
_cell_formula_units_Z   4
loop_
 _symmetry_equiv_pos_site_id
 _symmetry_equiv_pos_as_xyz
  1  'x, y, z'
  2  '-x, -y, -z'
  3  '-x, y+1/2, -z+1/2'
  4  'x, -y+1/2, z+1/2'
loop_
 _atom_site_type_symbol
 _atom_site_label
 _atom_site_symmetry_multiplicity
 _atom_site_fract_x
 _atom_site_fract_y
 _atom_site_fract_z
 _atom_site_occupancy
  C  C0  4  0.00277461  0.74732804  0.51016447  1
  C  C1  4  0.10931963  0.79084484  0.46547861  1
  C  C2  4  0.17868706  0.76946726  0.90476837  1
  C  C3  4  0.28891222  0.81196738  0.38434923  1
  C  C4  4  0.31151594  0.54272400  0.34099756  1
  C  C5  4  0.33775651  0.41679222  0.33825694  1
  C  C6  4  0.42613535  0.61963221  0.32796517  1
  C  C7  4  0.42931845  0.07025442  0.18260987  1
  S  S8  4  0.12471552  0.92022453  0.85709535  1
  S  S9  4  0.18126572  0.94086185  0.48543003  1
  S  S10  4  0.41613911  0.77721619  0.31757263  1
  N  N11  4  -0.08196976  0.78352322  1.05187078  1
  N  N12  4  0.30103143  0.92418933  0.42157764  1
  N  N13  4  0.31047716  0.02961660  0.19120931  1
  N  N14  4  0.35882944  0.31349024  0.33315790  1
