###############################################################################################
#
# CIF file generated by modified CIFWriter class 
# in pymatgen (v2025.03.10) https://pymatgen.org/
#
###############################################################################################
data_PBE+MBD_tight_6be50be3de399d1
_symmetry_space_group_name_H-M   P2_1/c
_cell_length_a   17.94885568
_cell_length_b   4.99595308
_cell_length_c   12.77682132
_cell_angle_alpha   90.00000000
_cell_angle_beta   84.33173539
_cell_angle_gamma   90.00000000
_symmetry_Int_Tables_number   14
_chemical_formula_moiety   'C8 N4 S3'
_chemical_formula_sum   'C32 S12 N16'
_cell_volume   1140.11646073
_cell_formula_units_Z   4
loop_
 _symmetry_equiv_pos_site_id
 _symmetry_equiv_pos_as_xyz
  1  'x, y, z'
  2  '-x, -y, -z'
  3  '-x, y+1/2, -z+1/2'
  4  'x, -y+1/2, z+1/2'
loop_
 _atom_site_type_symbol
 _atom_site_label
 _atom_site_symmetry_multiplicity
 _atom_site_fract_x
 _atom_site_fract_y
 _atom_site_fract_z
 _atom_site_occupancy
  C  C0  4  0.08777918  -0.11432942  0.20788895  1
  C  C1  4  0.11541066  0.05858590  0.12635049  1
  C  C2  4  0.18970951  0.08892689  0.08553554  1
  C  C3  4  0.19436711  0.26456229  -0.00229008  1
  C  C4  4  0.33758351  0.32874735  0.60120102  1
  C  C5  4  0.34192464  0.33531765  0.01541798  1
  C  C6  4  0.38869207  0.31543804  0.67863451  1
  C  C7  4  0.39701663  0.53773240  -0.00121050  1
  S  S8  4  0.06007427  0.25281806  0.05181081  1
  S  S9  4  0.26656871  -0.07176953  0.13166608  1
  S  S10  4  0.27808651  0.33354980  -0.08163553  1
  N  N11  4  0.06592381  0.76666797  0.77297271  1
  N  N12  4  0.13067041  0.36819660  -0.02717763  1
  N  N13  4  0.42679584  0.31303122  0.74751377  1
  N  N14  4  0.43890901  0.71505408  -0.01662520  1
