###############################################################################################
#
# CIF file generated by modified CIFWriter class 
# in pymatgen (v2025.03.10) https://pymatgen.org/
#
###############################################################################################
data_PBE+MBD_tight_723dd2506db8bb
_symmetry_space_group_name_H-M   P2_12_12_1
_cell_length_a   11.71913362
_cell_length_b   6.84899066
_cell_length_c   12.72375201
_cell_angle_alpha   90.00000000
_cell_angle_beta   90.00000000
_cell_angle_gamma   90.00000000
_symmetry_Int_Tables_number   19
_chemical_formula_moiety   'C8 N4 S3'
_chemical_formula_sum   'C32 S12 N16'
_cell_volume   1021.26224348
_cell_formula_units_Z   4
loop_
 _symmetry_equiv_pos_site_id
 _symmetry_equiv_pos_as_xyz
  1  'x, y, z'
  2  '-x+1/2, -y, z+1/2'
  3  '-x, y+1/2, -z+1/2'
  4  'x+1/2, -y+1/2, -z'
loop_
 _atom_site_type_symbol
 _atom_site_label
 _atom_site_symmetry_multiplicity
 _atom_site_fract_x
 _atom_site_fract_y
 _atom_site_fract_z
 _atom_site_occupancy
  C  C0  4  -0.07972735  -0.01511093  0.39682078  1
  C  C1  4  -0.00443709  0.14452900  0.39552469  1
  C  C2  4  0.07886682  0.73103250  0.68822398  1
  C  C3  4  0.11125750  0.14218759  0.37182291  1
  C  C4  4  0.15521636  0.33496334  0.37598008  1
  C  C5  4  0.16324091  0.78691066  0.76194889  1
  C  C6  4  0.17279063  1.10543148  0.68079661  1
  C  C7  4  0.20712381  0.97171617  0.75940465  1
  S  S8  4  -0.04372467  0.38264699  0.42486371  1
  S  S9  4  0.19154314  -0.06815991  0.34765848  1
  S  S10  4  0.20029465  0.60423381  0.85333148  1
  N  N11  4  -0.14211334  -0.14785650  0.39610324  1
  N  N12  4  0.00626357  0.68735977  0.63009923  1
  N  N13  4  0.08285346  0.47523218  0.40063536  1
  N  N14  4  0.14637042  1.21886044  0.61685212  1
