###############################################################################################
#
# CIF file generated by modified CIFWriter class 
# in pymatgen (v2025.03.10) https://pymatgen.org/
#
###############################################################################################
data_PBE+MBD_tight_7951cd22f77399f
_symmetry_space_group_name_H-M   P4_2
_cell_length_a   8.06539681
_cell_length_b   8.06539681
_cell_length_c   18.11606025
_cell_angle_alpha   90.00000000
_cell_angle_beta   90.00000000
_cell_angle_gamma   90.00000000
_symmetry_Int_Tables_number   77
_chemical_formula_moiety   'C8 N4 S3'
_chemical_formula_sum   'C32 S12 N16'
_cell_volume   1178.46105358
_cell_formula_units_Z   4
loop_
 _symmetry_equiv_pos_site_id
 _symmetry_equiv_pos_as_xyz
  1  'x, y, z'
  2  '-y, x, z+1/2'
  3  '-x, -y, z'
  4  'y, -x, z+1/2'
loop_
 _atom_site_type_symbol
 _atom_site_label
 _atom_site_symmetry_multiplicity
 _atom_site_fract_x
 _atom_site_fract_y
 _atom_site_fract_z
 _atom_site_occupancy
  C  C0  4  0.09711897  0.71151651  0.67836546  1
  C  C1  4  0.18605060  0.32640493  0.07242634  1
  C  C2  4  0.19162477  0.61261399  0.25005202  1
  C  C3  4  0.22193432  0.55816147  0.37433408  1
  C  C4  4  0.23218356  0.38142096  0.14382529  1
  C  C5  4  0.25179807  0.49835042  0.30353107  1
  C  C6  4  0.26465688  0.47983128  0.44102383  1
  C  C7  4  0.26813235  0.71679993  0.69522302  1
  S  S8  4  0.12283456  0.74888492  0.36691893  1
  S  S9  4  0.22526857  0.59870423  0.15382794  1
  S  S10  4  0.31055816  0.64745660  0.78552487  1
  N  N11  4  -0.04450102  0.70216594  0.66652741  1
  N  N12  4  0.11529906  0.74517629  0.27621035  1
  N  N13  4  0.15130688  0.28340398  0.01299913  1
  N  N14  4  0.30147202  0.41133471  0.49531250  1
