###############################################################################################
#
# CIF file generated by modified CIFWriter class 
# in pymatgen (v2025.03.10) https://pymatgen.org/
#
###############################################################################################
data_PBE+MBD_tight_7b97c61272070ff
_symmetry_space_group_name_H-M   P2_1/c
_cell_length_a   10.12947816
_cell_length_b   9.81270074
_cell_length_c   12.20225112
_cell_angle_alpha   90.00000000
_cell_angle_beta   125.08909183
_cell_angle_gamma   90.00000000
_symmetry_Int_Tables_number   14
_chemical_formula_moiety   'C8 N4 S3'
_chemical_formula_sum   'C32 S12 N16'
_cell_volume   992.44504645
_cell_formula_units_Z   4
loop_
 _symmetry_equiv_pos_site_id
 _symmetry_equiv_pos_as_xyz
  1  'x, y, z'
  2  '-x, -y, -z'
  3  '-x, y+1/2, -z+1/2'
  4  'x, -y+1/2, z+1/2'
loop_
 _atom_site_type_symbol
 _atom_site_label
 _atom_site_symmetry_multiplicity
 _atom_site_fract_x
 _atom_site_fract_y
 _atom_site_fract_z
 _atom_site_occupancy
  C  C0  4  0.07937528  0.60689383  0.16957485  1
  C  C1  4  0.18633153  -0.06936300  0.63643121  1
  C  C2  4  0.18693333  0.46071274  0.65339287  1
  C  C3  4  0.24994860  0.05951424  0.64705934  1
  C  C4  4  0.25152176  0.33482915  0.64769747  1
  C  C5  4  0.33526370  0.33347847  0.59060392  1
  C  C6  4  0.34271750  0.05694893  0.59345114  1
  C  C7  4  0.34368142  0.45558128  0.53277955  1
  S  S8  4  0.21682821  0.19701420  0.71974315  1
  S  S9  4  0.25190350  -0.17955105  0.56579185  1
  S  S10  4  0.44126035  0.19786572  0.58026940  1
  N  N11  4  -0.01473050  0.63600638  0.19168687  1
  N  N12  4  0.14014719  0.56731589  0.65882427  1
  N  N13  4  0.35176346  0.55580151  0.48553408  1
  N  N14  4  0.35346442  -0.06144084  0.54762819  1
