###############################################################################################
#
# CIF file generated by modified CIFWriter class 
# in pymatgen (v2025.03.10) https://pymatgen.org/
#
###############################################################################################
data_PBE+MBD_tight_7ce1dd70d94f123
_symmetry_space_group_name_H-M   P2_1/c
_cell_length_a   9.68476166
_cell_length_b   9.12457708
_cell_length_c   12.00095749
_cell_angle_alpha   90.00000000
_cell_angle_beta   83.82838130
_cell_angle_gamma   90.00000000
_symmetry_Int_Tables_number   14
_chemical_formula_moiety   'C8 N4 S3'
_chemical_formula_sum   'C32 S12 N16'
_cell_volume   1054.37046851
_cell_formula_units_Z   4
loop_
 _symmetry_equiv_pos_site_id
 _symmetry_equiv_pos_as_xyz
  1  'x, y, z'
  2  '-x, -y, -z'
  3  '-x, y+1/2, -z+1/2'
  4  'x, -y+1/2, z+1/2'
loop_
 _atom_site_type_symbol
 _atom_site_label
 _atom_site_symmetry_multiplicity
 _atom_site_fract_x
 _atom_site_fract_y
 _atom_site_fract_z
 _atom_site_occupancy
  C  C0  4  0.16716196  0.23158516  0.23966484  1
  C  C1  4  0.17285171  0.36726432  0.29399097  1
  C  C2  4  0.18196890  0.88842670  0.83649751  1
  C  C3  4  0.18326951  0.99265379  0.74879261  1
  C  C4  4  0.31938725  0.70006918  0.69432550  1
  C  C5  4  0.32386348  0.69799049  0.11076093  1
  C  C6  4  0.42203378  0.90997615  0.19582467  1
  C  C7  4  0.43351075  0.69568490  0.02272414  1
  S  S8  4  0.16252512  1.11856050  0.93858221  1
  S  S9  4  0.18967798  0.80191689  0.30988409  1
  S  S10  4  0.19899225  0.94365085  0.60703650  1
  N  N11  4  0.15881228  0.11698174  0.19786709  1
  N  N12  4  0.17328828  0.56104562  0.44016117  1
  N  N13  4  0.47590787  0.30802943  1.04964073  1
  N  N14  4  0.49542214  0.50237566  0.30089895  1
