###############################################################################################
#
# CIF file generated by modified CIFWriter class 
# in pymatgen (v2025.03.10) https://pymatgen.org/
#
###############################################################################################
data_PBE+MBD_tight_7db493c24664ac7
_symmetry_space_group_name_H-M   P2_12_12_1
_cell_length_a   15.26081295
_cell_length_b   7.95856350
_cell_length_c   9.02345465
_cell_angle_alpha   90.00000000
_cell_angle_beta   90.00000000
_cell_angle_gamma   90.00000000
_symmetry_Int_Tables_number   19
_chemical_formula_moiety   'C8 N4 S3'
_chemical_formula_sum   'C32 S12 N16'
_cell_volume   1095.93600423
_cell_formula_units_Z   4
loop_
 _symmetry_equiv_pos_site_id
 _symmetry_equiv_pos_as_xyz
  1  'x, y, z'
  2  'x+1/2, -y+1/2, -z'
  3  '-x, y+1/2, -z+1/2'
  4  '-x+1/2, -y, z+1/2'
loop_
 _atom_site_type_symbol
 _atom_site_label
 _atom_site_symmetry_multiplicity
 _atom_site_fract_x
 _atom_site_fract_y
 _atom_site_fract_z
 _atom_site_occupancy
  C  C0  4  0.05729453  0.77117848  0.26015606  1
  C  C1  4  0.06730346  0.72044219  0.01008371  1
  C  C2  4  0.10249394  0.67666113  -0.12835365  1
  C  C3  4  0.10880511  0.69970790  0.14581055  1
  C  C4  4  0.15814059  0.25064955  0.80628159  1
  C  C5  4  0.20239106  0.78531994  0.43027420  1
  C  C6  4  0.24481158  0.87991829  0.54230167  1
  C  C7  4  0.24907023  0.28263505  0.81779865  1
  S  S8  4  -0.03243519  0.81929659  0.04000549  1
  S  S9  4  0.08767975  0.76917941  0.44925965  1
  S  S10  4  0.20785284  0.59394541  0.17228092  1
  N  N11  4  -0.01796187  0.83960058  0.22018636  1
  N  N12  4  0.08335144  0.22540541  0.79144454  1
  N  N13  4  0.13633753  0.64131374  -0.23984787  1
  N  N14  4  0.21918207  0.04491781  1.13498360  1
