###############################################################################################
#
# CIF file generated by modified CIFWriter class 
# in pymatgen (v2025.03.10) https://pymatgen.org/
#
###############################################################################################
data_PBE+MBD_tight_83cb40f300e160
_symmetry_space_group_name_H-M   Pnn2
_cell_length_a   7.53345331
_cell_length_b   17.34895278
_cell_length_c   8.47123573
_cell_angle_alpha   90.00000000
_cell_angle_beta   90.00000000
_cell_angle_gamma   90.00000000
_symmetry_Int_Tables_number   34
_chemical_formula_moiety   'C8 N4 S3'
_chemical_formula_sum   'C32 S12 N16'
_cell_volume   1107.16954975
_cell_formula_units_Z   4
loop_
 _symmetry_equiv_pos_site_id
 _symmetry_equiv_pos_as_xyz
  1  'x, y, z'
  2  '-x, -y, z'
  3  '-x+1/2, y+1/2, z+1/2'
  4  'x+1/2, -y+1/2, z+1/2'
loop_
 _atom_site_type_symbol
 _atom_site_label
 _atom_site_symmetry_multiplicity
 _atom_site_fract_x
 _atom_site_fract_y
 _atom_site_fract_z
 _atom_site_occupancy
  C  C0  4  0.16466776  0.72008711  0.14027450  1
  C  C1  4  0.17031818  0.58435585  0.29413685  1
  C  C2  4  0.17114105  0.08684761  1.20308246  1
  C  C3  4  0.17878591  0.75832359  -0.00721226  1
  C  C4  4  0.20588652  0.33081034  0.77018817  1
  C  C5  4  0.21041293  0.62323080  0.43733105  1
  C  C6  4  0.21403551  0.75713078  0.27622681  1
  C  C7  4  0.23192441  0.07057277  1.04979314  1
  S  S8  4  0.07399132  0.62711181  0.12613475  1
  S  S9  4  0.18613908  0.72222745  0.47049113  1
  S  S10  4  0.23630323  -0.02076635  0.96617346  1
  N  N11  4  0.11466737  0.10241252  1.32729466  1
  N  N12  4  0.13742505  0.39117175  0.76780792  1
  N  N13  4  0.18139456  0.78983857  -0.12889517  1
  N  N14  4  0.19806294  0.50920252  0.29174665  1
