###############################################################################################
#
# CIF file generated by modified CIFWriter class 
# in pymatgen (v2025.03.10) https://pymatgen.org/
#
###############################################################################################
data_PBE+MBD_tight_840d370702aea71
_symmetry_space_group_name_H-M   P4_2
_cell_length_a   11.87964565
_cell_length_b   11.87964565
_cell_length_c   7.49620835
_cell_angle_alpha   90.00000000
_cell_angle_beta   90.00000000
_cell_angle_gamma   90.00000000
_symmetry_Int_Tables_number   77
_chemical_formula_moiety   'C8 N4 S3'
_chemical_formula_sum   'C32 S12 N16'
_cell_volume   1057.90975482
_cell_formula_units_Z   4
loop_
 _symmetry_equiv_pos_site_id
 _symmetry_equiv_pos_as_xyz
  1  'x, y, z'
  2  '-y, x, z+1/2'
  3  '-x, -y, z'
  4  'y, -x, z+1/2'
loop_
 _atom_site_type_symbol
 _atom_site_label
 _atom_site_symmetry_multiplicity
 _atom_site_fract_x
 _atom_site_fract_y
 _atom_site_fract_z
 _atom_site_occupancy
  C  C0  4  -0.00178328  0.32670723  -0.04836041  1
  C  C1  4  0.03805461  0.28209283  0.11344056  1
  C  C2  4  0.10704042  0.33507001  0.23725798  1
  C  C3  4  0.13645377  0.25827991  0.37470724  1
  C  C4  4  0.20062108  0.50481428  0.43050644  1
  C  C5  4  0.20515781  0.62239789  0.45924526  1
  C  C6  4  0.23262258  0.43131538  0.56160889  1
  C  C7  4  0.28019623  0.47266544  0.72226038  1
  S  S8  4  0.01761180  0.14369725  0.17944560  1
  S  S9  4  0.15602827  0.47272545  0.21234629  1
  S  S10  4  0.22762767  0.28398057  0.55523680  1
  N  N11  4  -0.03344249  0.36378749  -0.18349554  1
  N  N12  4  0.09410732  0.15581602  0.36192603  1
  N  N13  4  0.20686986  0.72007629  0.47459098  1
  N  N14  4  0.32392938  0.50390036  0.85248747  1
