###############################################################################################
#
# CIF file generated by modified CIFWriter class 
# in pymatgen (v2025.03.10) https://pymatgen.org/
#
###############################################################################################
data_PBE+MBD_tight_84e617d5b1b36fd
_symmetry_space_group_name_H-M   P2_12_12
_cell_length_a   10.63737125
_cell_length_b   9.96674167
_cell_length_c   11.18222150
_cell_angle_alpha   90.00000000
_cell_angle_beta   90.00000000
_cell_angle_gamma   90.00000000
_symmetry_Int_Tables_number   18
_chemical_formula_moiety   'C8 N4 S3'
_chemical_formula_sum   'C32 S12 N16'
_cell_volume   1185.53835532
_cell_formula_units_Z   4
loop_
 _symmetry_equiv_pos_site_id
 _symmetry_equiv_pos_as_xyz
  1  'x, y, z'
  2  '-x, -y, z'
  3  '-x+1/2, y+1/2, -z'
  4  'x+1/2, -y+1/2, -z'
loop_
 _atom_site_type_symbol
 _atom_site_label
 _atom_site_symmetry_multiplicity
 _atom_site_fract_x
 _atom_site_fract_y
 _atom_site_fract_z
 _atom_site_occupancy
  C  C0  4  -0.00281312  0.79140617  0.93397230  1
  C  C1  4  0.10197558  0.84280499  0.87134642  1
  C  C2  4  0.14238404  0.37156733  0.24704311  1
  C  C3  4  0.17071388  0.19128258  0.37239031  1
  C  C4  4  0.18311677  0.94962144  1.04989019  1
  C  C5  4  0.18916117  0.92335829  0.92542277  1
  C  C6  4  0.22391836  0.08611021  0.43891543  1
  C  C7  4  0.23132798  0.28376082  0.29995581  1
  S  S8  4  0.01127340  0.22543332  0.36940605  1
  S  S9  4  0.10609530  0.79578573  0.71905367  1
  S  S10  4  0.18457789  0.50323320  0.14886504  1
  N  N11  4  -0.09413821  0.75303526  0.98038764  1
  N  N12  4  0.02327768  0.35078083  0.27464541  1
  N  N13  4  0.18024912  0.97269181  1.15209268  1
  N  N14  4  0.23308863  0.49831033  0.50558806  1
