###############################################################################################
#
# CIF file generated by modified CIFWriter class 
# in pymatgen (v2025.03.10) https://pymatgen.org/
#
###############################################################################################
data_PBE+MBD_tight_88dea3cab525d71
_symmetry_space_group_name_H-M   P2_1/m
_cell_length_a   10.26877663
_cell_length_b   6.72868737
_cell_length_c   14.15859778
_cell_angle_alpha   90.00000000
_cell_angle_beta   84.81888532
_cell_angle_gamma   90.00000000
_symmetry_Int_Tables_number   11
_chemical_formula_moiety   'C8 N4 S3'
_chemical_formula_sum   'C32 S12 N16'
_cell_volume   974.29670738
_cell_formula_units_Z   4
loop_
 _symmetry_equiv_pos_site_id
 _symmetry_equiv_pos_as_xyz
  1  'x, y, z'
  2  '-x, -y, -z'
  3  '-x, y+1/2, -z'
  4  'x, -y+1/2, z'
  5  'x, y, z+1/2'
  6  '-x, -y, -z+1/2'
  7  '-x, y+1/2, -z+1/2'
  8  'x, -y+1/2, z+1/2'
loop_
 _atom_site_type_symbol
 _atom_site_label
 _atom_site_symmetry_multiplicity
 _atom_site_fract_x
 _atom_site_fract_y
 _atom_site_fract_z
 _atom_site_occupancy
  C  C0  4  -0.02018528  0.75005971  0.39421749  1
  C  C1  4  0.05515390  0.75005971  0.57550544  1
  C  C2  4  0.11527597  0.75005971  0.90681351  1
  C  C3  4  0.15199824  0.75005971  0.99760958  1
  C  C4  4  0.37188049  0.75005971  0.83605550  1
  C  C5  4  0.38499976  0.25005971  -0.00884755  1
  C  C6  4  0.40939900  0.75005971  0.93015445  1
  C  C7  4  0.45490552  0.25005971  0.07208358  1
  S  S8  4  0.21264157  0.75005971  0.29907137  1
  S  S9  4  0.30917908  0.75005971  0.53684426  1
  S  S10  4  0.38801543  0.25005971  0.68968301  1
  N  N11  4  -0.13152604  0.75005971  0.88422155  1
  N  N12  4  -0.02066509  0.75005971  0.64207061  1
  N  N13  4  0.33402592  0.25005971  -0.07926216  1
  N  N14  4  0.46787297  0.75005971  0.26769593  1
