###############################################################################################
#
# CIF file generated by modified CIFWriter class 
# in pymatgen (v2025.03.10) https://pymatgen.org/
#
###############################################################################################
data_PBE+MBD_tight_88ebd7dd34cf277
_symmetry_space_group_name_H-M   P2_1/c
_cell_length_a   11.33234207
_cell_length_b   7.03605789
_cell_length_c   13.34135494
_cell_angle_alpha   90.00000000
_cell_angle_beta   96.28860522
_cell_angle_gamma   90.00000000
_symmetry_Int_Tables_number   14
_chemical_formula_moiety   'C8 N4 S3'
_chemical_formula_sum   'C32 S12 N16'
_cell_volume   1057.37215483
_cell_formula_units_Z   4
loop_
 _symmetry_equiv_pos_site_id
 _symmetry_equiv_pos_as_xyz
  1  'x, y, z'
  2  '-x, -y, -z'
  3  '-x, y+1/2, -z+1/2'
  4  'x, -y+1/2, z+1/2'
loop_
 _atom_site_type_symbol
 _atom_site_label
 _atom_site_symmetry_multiplicity
 _atom_site_fract_x
 _atom_site_fract_y
 _atom_site_fract_z
 _atom_site_occupancy
  C  C0  4  0.12616945  0.25842215  0.98468225  1
  C  C1  4  0.13848407  0.19353783  0.27361725  1
  C  C2  4  0.15676703  0.10706552  0.92259347  1
  C  C3  4  0.17248548  0.13395859  0.82338587  1
  C  C4  4  0.32050958  0.66462077  0.44557350  1
  C  C5  4  0.34559282  -0.12446163  0.84578269  1
  C  C6  4  0.46383823  -0.16760601  0.83719082  1
  C  C7  4  0.47113447  1.14516613  0.24569486  1
  S  S8  4  0.18210407  0.61200780  0.48736827  1
  S  S9  4  0.23986547  0.53769526  0.25083897  1
  S  S10  4  0.47262866  0.23982749  0.54907925  1
  N  N11  4  0.10721584  0.44606037  0.73166059  1
  N  N12  4  0.10820741  0.37924640  1.04098390  1
  N  N13  4  0.40758159  -0.23470536  1.00881859  1
  N  N14  4  0.41442478  0.37362141  0.81286417  1
