###############################################################################################
#
# CIF file generated by modified CIFWriter class 
# in pymatgen (v2025.03.10) https://pymatgen.org/
#
###############################################################################################
data_PBE+MBD_tight_8c4fb32384bfcf5
_symmetry_space_group_name_H-M   Pba2
_cell_length_a   19.41311883
_cell_length_b   13.38898240
_cell_length_c   4.06865336
_cell_angle_alpha   90.00000000
_cell_angle_beta   90.00000000
_cell_angle_gamma   90.00000000
_symmetry_Int_Tables_number   32
_chemical_formula_moiety   'C8 N4 S3'
_chemical_formula_sum   'C32 S12 N16'
_cell_volume   1057.53213791
_cell_formula_units_Z   4
loop_
 _symmetry_equiv_pos_site_id
 _symmetry_equiv_pos_as_xyz
  1  'x, y, z'
  2  '-x, -y, z'
  3  'x+1/2, -y+1/2, z'
  4  '-x+1/2, y+1/2, z'
loop_
 _atom_site_type_symbol
 _atom_site_label
 _atom_site_symmetry_multiplicity
 _atom_site_fract_x
 _atom_site_fract_y
 _atom_site_fract_z
 _atom_site_occupancy
  C  C0  4  -0.00468212  0.83557780  0.12096255  1
  C  C1  4  0.00135299  0.64136934  -0.10614352  1
  C  C2  4  0.05628653  0.77920087  0.17127771  1
  C  C3  4  0.05869508  0.68236994  0.06183271  1
  C  C4  4  0.19481976  0.78184363  0.26843252  1
  C  C5  4  0.19656911  0.68238261  0.14566835  1
  C  C6  4  0.21440795  0.06628228  -0.07664754  1
  C  C7  4  0.23598559  0.15609472  0.06884736  1
  S  S8  4  0.11948666  0.84786552  0.38269964  1
  S  S9  4  0.12774799  0.59844415  0.10895943  1
  S  S10  4  0.18228271  0.25499532  0.17087721  1
  N  N11  4  -0.05530623  0.88137575  0.08753906  1
  N  N12  4  -0.04553414  0.60732368  -0.24654600  1
  N  N13  4  0.19850492  -0.00782324  -0.20596210  1
  N  N14  4  0.24534236  0.32807904  0.29190666  1
