###############################################################################################
#
# CIF file generated by modified CIFWriter class 
# in pymatgen (v2025.03.10) https://pymatgen.org/
#
###############################################################################################
data_PBE+MBD_tight_8ec86d65539b994
_symmetry_space_group_name_H-M   C2
_cell_length_a   19.50832374
_cell_length_b   9.00494469
_cell_length_c   9.68117707
_cell_angle_alpha   90.00000000
_cell_angle_beta   124.18121380
_cell_angle_gamma   90.00000000
_symmetry_Int_Tables_number   5
_chemical_formula_moiety   'C8 N4 S3'
_chemical_formula_sum   'C32 S12 N16'
_cell_volume   1406.93400470
_cell_formula_units_Z   4
loop_
 _symmetry_equiv_pos_site_id
 _symmetry_equiv_pos_as_xyz
  1  'x, y, z'
  2  '-x, y, -z'
  3  'x+1/2, y+1/2, z'
  4  '-x+1/2, y+1/2, -z'
loop_
 _atom_site_type_symbol
 _atom_site_label
 _atom_site_symmetry_multiplicity
 _atom_site_fract_x
 _atom_site_fract_y
 _atom_site_fract_z
 _atom_site_occupancy
  C  C0  4  0.08757062  0.22521322  0.21226707  1
  C  C1  4  0.15590886  0.22076669  0.19806364  1
  C  C2  4  0.17685314  0.63583611  0.73582266  1
  C  C3  4  0.20877269  0.38962820  0.80067830  1
  C  C4  4  0.21567846  0.43788975  0.37392195  1
  C  C5  4  0.21809649  0.32345199  0.27626810  1
  C  C6  4  0.24170034  0.52963502  0.81402929  1
  C  C7  4  0.24922601  -0.24668729  0.14506117  1
  S  S8  4  0.10243950  0.40711283  0.70135564  1
  S  S9  4  0.15271511  0.07113285  0.07639335  1
  S  S10  4  0.19274160  0.82767596  0.72780670  1
  N  N11  4  0.02994678  0.22530524  0.21983109  1
  N  N12  4  0.10087073  0.58678500  0.67010490  1
  N  N13  4  0.21536478  0.53332617  0.45494040  1
  N  N14  4  0.21546090  -0.36117822  0.10284679  1
