###############################################################################################
#
# CIF file generated by modified CIFWriter class 
# in pymatgen (v2025.03.10) https://pymatgen.org/
#
###############################################################################################
data_PBE+MBD_tight_943fb55321d52cf
_symmetry_space_group_name_H-M   P2_1/c
_cell_length_a   10.07757360
_cell_length_b   7.15555949
_cell_length_c   13.94734909
_cell_angle_alpha   90.00000000
_cell_angle_beta   96.78137427
_cell_angle_gamma   90.00000000
_symmetry_Int_Tables_number   14
_chemical_formula_moiety   'C8 N4 S3'
_chemical_formula_sum   'C32 S12 N16'
_cell_volume   998.71649011
_cell_formula_units_Z   4
loop_
 _symmetry_equiv_pos_site_id
 _symmetry_equiv_pos_as_xyz
  1  'x, y, z'
  2  '-x, -y, -z'
  3  '-x, y+1/2, -z+1/2'
  4  'x, -y+1/2, z+1/2'
loop_
 _atom_site_type_symbol
 _atom_site_label
 _atom_site_symmetry_multiplicity
 _atom_site_fract_x
 _atom_site_fract_y
 _atom_site_fract_z
 _atom_site_occupancy
  C  C0  4  0.00122070  0.67266650  0.38183131  1
  C  C1  4  0.07509267  0.68835190  0.19689109  1
  C  C2  4  0.13203369  0.73093554  0.36823559  1
  C  C3  4  0.16729863  0.74261713  0.27657945  1
  C  C4  4  0.36040932  0.20054575  0.72854763  1
  C  C5  4  0.39240846  0.76703855  0.44247669  1
  C  C6  4  0.42846346  0.71596411  0.84757543  1
  C  C7  4  0.43317317  0.27396790  0.14948665  1
  S  S8  4  0.23018969  0.78512568  0.47675283  1
  S  S9  4  0.32023832  0.81937266  0.24144238  1
  S  S10  4  0.36342429  0.25873255  0.53040678  1
  N  N11  4  -0.10695632  0.87148341  0.89361701  1
  N  N12  4  0.00164148  0.85625338  0.62982963  1
  N  N13  4  0.30426536  0.32670311  0.29573150  1
  N  N14  4  0.49115617  0.75663253  1.01247825  1
