###############################################################################################
#
# CIF file generated by modified CIFWriter class 
# in pymatgen (v2025.03.10) https://pymatgen.org/
#
###############################################################################################
data_PBE+MBD_tight_944e5445ff4669f
_symmetry_space_group_name_H-M   P222_1
_cell_length_a   7.17613063
_cell_length_b   13.23023473
_cell_length_c   11.12020202
_cell_angle_alpha   90.00000000
_cell_angle_beta   90.00000000
_cell_angle_gamma   90.00000000
_symmetry_Int_Tables_number   17
_chemical_formula_moiety   'C8 N4 S3'
_chemical_formula_sum   'C32 S12 N16'
_cell_volume   1055.77302612
_cell_formula_units_Z   4
loop_
 _symmetry_equiv_pos_site_id
 _symmetry_equiv_pos_as_xyz
  1  'x, y, z'
  2  '-x, -y, z+1/2'
  3  'x, -y, -z'
  4  '-x, y, -z+1/2'
loop_
 _atom_site_type_symbol
 _atom_site_label
 _atom_site_symmetry_multiplicity
 _atom_site_fract_x
 _atom_site_fract_y
 _atom_site_fract_z
 _atom_site_occupancy
  C  C0  4  -0.21395101  0.37699817  0.70001117  1
  C  C1  4  -0.16868544  0.28658956  0.64014840  1
  C  C2  4  -0.05407828  0.26900246  0.54157705  1
  C  C3  4  -0.03828102  0.16300452  0.52165845  1
  C  C4  4  0.26854457  0.29809288  0.42739987  1
  C  C5  4  0.28338570  0.19597854  0.40899650  1
  C  C6  4  0.43392690  0.35646975  0.43053492  1
  C  C7  4  0.45969647  0.14966140  0.39401859  1
  S  S8  4  -0.24663560  0.17033529  0.69313383  1
  S  S9  4  0.05400448  0.36087871  0.45154166  1
  S  S10  4  0.09344372  0.11150322  0.40256660  1
  N  N11  4  -0.24782043  0.44811998  0.75801962  1
  N  N12  4  -0.12853898  0.10247653  0.59579211  1
  N  N13  4  0.39739445  0.10969317  1.12143919  1
  N  N14  4  0.42229238  0.39745990  1.06638549  1
