###############################################################################################
#
# CIF file generated by modified CIFWriter class 
# in pymatgen (v2025.03.10) https://pymatgen.org/
#
###############################################################################################
data_PBE+MBD_tight_95a9b7863681175
_symmetry_space_group_name_H-M   P2_12_12_1
_cell_length_a   5.66450418
_cell_length_b   10.18499158
_cell_length_c   19.13561899
_cell_angle_alpha   90.00000000
_cell_angle_beta   90.00000000
_cell_angle_gamma   90.00000000
_symmetry_Int_Tables_number   19
_chemical_formula_moiety   'C8 N4 S3'
_chemical_formula_sum   'C32 S12 N16'
_cell_volume   1103.98987674
_cell_formula_units_Z   4
loop_
 _symmetry_equiv_pos_site_id
 _symmetry_equiv_pos_as_xyz
  1  'x, y, z'
  2  '-x+1/2, -y, z+1/2'
  3  'x+1/2, -y+1/2, -z'
  4  '-x, y+1/2, -z+1/2'
loop_
 _atom_site_type_symbol
 _atom_site_label
 _atom_site_symmetry_multiplicity
 _atom_site_fract_x
 _atom_site_fract_y
 _atom_site_fract_z
 _atom_site_occupancy
  C  C0  4  0.01195769  0.39609519  0.98146689  1
  C  C1  4  0.01198193  0.53732431  0.35785727  1
  C  C2  4  0.05643321  0.21677871  0.71673334  1
  C  C3  4  0.09775565  0.64419441  0.23037628  1
  C  C4  4  0.09816581  0.61615088  0.15788643  1
  C  C5  4  0.19731914  0.61606413  0.38430134  1
  C  C6  4  0.21098082  0.44055707  0.94454981  1
  C  C7  4  0.23196434  0.27654078  0.75859936  1
  S  S8  4  -0.13433476  0.57135241  0.27813498  1
  S  S9  4  0.12508354  0.42018895  0.46350991  1
  S  S10  4  0.20911460  0.23506065  0.84794124  1
  N  N11  4  -0.15929833  0.35842191  1.00856994  1
  N  N12  4  -0.09101475  0.16244713  0.68551126  1
  N  N13  4  -0.04493444  0.43211760  0.39421501  1
  N  N14  4  0.10034060  0.59328298  0.09820522  1
