###############################################################################################
#
# CIF file generated by modified CIFWriter class 
# in pymatgen (v2025.03.10) https://pymatgen.org/
#
###############################################################################################
data_PBE+MBD_tight_969dfc66cccd724
_symmetry_space_group_name_H-M   P2/c
_cell_length_a   16.11202487
_cell_length_b   10.64247179
_cell_length_c   6.46705108
_cell_angle_alpha   90.00000000
_cell_angle_beta   95.09263459
_cell_angle_gamma   90.00000000
_symmetry_Int_Tables_number   13
_chemical_formula_moiety   'C8 N4 S3'
_chemical_formula_sum   'C32 S12 N16'
_cell_volume   1104.53923014
_cell_formula_units_Z   4
loop_
 _symmetry_equiv_pos_site_id
 _symmetry_equiv_pos_as_xyz
  1  'x, y, z'
  2  '-x, -y, -z'
  3  '-x, y, -z+1/2'
  4  'x, -y, z+1/2'
loop_
 _atom_site_type_symbol
 _atom_site_label
 _atom_site_symmetry_multiplicity
 _atom_site_fract_x
 _atom_site_fract_y
 _atom_site_fract_z
 _atom_site_occupancy
  C  C0  4  0.15528243  0.71257022  0.49148917  1
  C  C1  4  0.16497007  0.36378719  -0.18187487  1
  C  C2  4  0.17656207  0.82600458  0.79258635  1
  C  C3  4  0.21266381  0.26134379  0.15955958  1
  C  C4  4  0.32375610  0.82618685  1.04371658  1
  C  C5  4  0.35654263  0.26065539  0.41818654  1
  C  C6  4  0.36929001  0.87225175  1.22535705  1
  C  C7  4  0.43826407  0.30729826  0.46893371  1
  S  S8  4  0.06378728  0.79483034  0.51836333  1
  S  S9  4  0.22472341  0.89740969  1.01711577  1
  S  S10  4  0.31114159  0.33073771  0.18958462  1
  N  N11  4  0.09926052  0.13793350  0.23844166  1
  N  N12  4  0.17134837  0.42339611  -0.33103752  1
  N  N13  4  0.40030568  0.91459571  1.37963051  1
  N  N14  4  0.49511334  0.65129507  0.49502416  1
