###############################################################################################
#
# CIF file generated by modified CIFWriter class 
# in pymatgen (v2025.03.10) https://pymatgen.org/
#
###############################################################################################
data_PBE+MBD_tight_9b2ba44816a5da3
_symmetry_space_group_name_H-M   P-4
_cell_length_a   15.13547885
_cell_length_b   15.13547885
_cell_length_c   5.31259284
_cell_angle_alpha   90.00000000
_cell_angle_beta   90.00000000
_cell_angle_gamma   90.00000000
_symmetry_Int_Tables_number   81
_chemical_formula_moiety   'C8 N4 S3'
_chemical_formula_sum   'C32 S12 N16'
_cell_volume   1217.02321929
_cell_formula_units_Z   4
loop_
 _symmetry_equiv_pos_site_id
 _symmetry_equiv_pos_as_xyz
  1  'x, y, z'
  2  'y, -x, -z'
  3  '-x, -y, z'
  4  '-y, x, -z'
loop_
 _atom_site_type_symbol
 _atom_site_label
 _atom_site_symmetry_multiplicity
 _atom_site_fract_x
 _atom_site_fract_y
 _atom_site_fract_z
 _atom_site_occupancy
  C  C0  4  0.08738924  0.61854186  0.55265802  1
  C  C1  4  0.11162389  0.71381355  0.88033806  1
  C  C2  4  0.14677524  0.76029221  1.08653426  1
  C  C3  4  0.14920524  0.64655257  0.73747585  1
  C  C4  4  0.19449956  0.47771710  0.44608714  1
  C  C5  4  0.20127305  0.39408607  0.32861100  1
  C  C6  4  0.25314129  0.50442455  0.62671318  1
  C  C7  4  0.32507863  0.44903801  0.69330996  1
  S  S8  4  0.00588772  0.73519634  0.76859562  1
  S  S9  4  0.10695362  0.53905367  0.31739892  1
  S  S10  4  0.25619112  0.60610704  0.78581568  1
  N  N11  4  0.00963928  0.65824866  0.54960283  1
  N  N12  4  0.17148538  0.79954887  1.26194160  1
  N  N13  4  0.20422911  0.32713078  0.22031752  1
  N  N14  4  0.38591584  0.40544697  0.74527172  1
