###############################################################################################
#
# CIF file generated by modified CIFWriter class 
# in pymatgen (v2025.03.10) https://pymatgen.org/
#
###############################################################################################
data_PBE+MBD_tight_9de9491596421d1
_symmetry_space_group_name_H-M   P4_1
_cell_length_a   9.18254929
_cell_length_b   9.18254929
_cell_length_c   14.53603704
_cell_angle_alpha   90.00000000
_cell_angle_beta   90.00000000
_cell_angle_gamma   90.00000000
_symmetry_Int_Tables_number   76
_chemical_formula_moiety   'C8 N4 S3'
_chemical_formula_sum   'C32 S12 N16'
_cell_volume   1225.66718210
_cell_formula_units_Z   4
loop_
 _symmetry_equiv_pos_site_id
 _symmetry_equiv_pos_as_xyz
  1  'x, y, z'
  2  '-y, x, z+1/4'
  3  '-x, -y, z+1/2'
  4  'y, -x, z+3/4'
loop_
 _atom_site_type_symbol
 _atom_site_label
 _atom_site_symmetry_multiplicity
 _atom_site_fract_x
 _atom_site_fract_y
 _atom_site_fract_z
 _atom_site_occupancy
  C  C0  4  0.10226285  0.25919244  0.73881519  1
  C  C1  4  0.12650505  0.50566090  0.42253546  1
  C  C2  4  0.22240502  0.63192734  0.08227635  1
  C  C3  4  0.25473965  0.31696915  0.35753999  1
  C  C4  4  0.25647271  0.26720738  0.73595308  1
  C  C5  4  0.25751215  0.53402582  0.72580041  1
  C  C6  4  0.26236104  0.43248045  0.41891635  1
  C  C7  4  0.32820281  0.39772515  0.73217884  1
  S  S8  4  0.07969064  0.30888413  0.31357223  1
  S  S9  4  0.09399308  0.66043398  0.49197239  1
  S  S10  4  0.41505983  0.47958411  0.48396074  1
  N  N11  4  -0.02371707  0.24486503  0.74340720  1
  N  N12  4  0.02156150  0.45316555  0.36999717  1
  N  N13  4  0.14709078  0.53597686  0.06013927  1
  N  N14  4  0.20845686  0.65085790  0.71965097  1
