###############################################################################################
#
# CIF file generated by modified CIFWriter class 
# in pymatgen (v2025.03.10) https://pymatgen.org/
#
###############################################################################################
data_PBE+MBD_tight_a8946df6f3659ee
_symmetry_space_group_name_H-M   Pca2_1
_cell_length_a   9.96864012
_cell_length_b   14.53329044
_cell_length_c   7.13935377
_cell_angle_alpha   90.00000000
_cell_angle_beta   90.00000000
_cell_angle_gamma   90.00000000
_symmetry_Int_Tables_number   29
_chemical_formula_moiety   'C8 N4 S3'
_chemical_formula_sum   'C32 S12 N16'
_cell_volume   1034.32917202
_cell_formula_units_Z   4
loop_
 _symmetry_equiv_pos_site_id
 _symmetry_equiv_pos_as_xyz
  1  'x, y, z'
  2  '-x, -y, z+1/2'
  3  '-x+1/2, y, z+1/2'
  4  'x+1/2, -y, z'
loop_
 _atom_site_type_symbol
 _atom_site_label
 _atom_site_symmetry_multiplicity
 _atom_site_fract_x
 _atom_site_fract_y
 _atom_site_fract_z
 _atom_site_occupancy
  C  C0  4  -0.23794329  0.18748805  0.11278709  1
  C  C1  4  -0.22863837  0.36872703  0.03699919  1
  C  C2  4  -0.10924656  0.22875777  0.09901432  1
  C  C3  4  -0.10548140  0.32162915  0.06324523  1
  C  C4  4  0.16284120  0.22514653  0.10301306  1
  C  C5  4  0.16770252  0.32144865  0.06553999  1
  C  C6  4  0.17150862  0.09926648  0.65336679  1
  C  C7  4  0.20704039  0.19096769  0.61528653  1
  S  S8  4  0.02436227  0.15205103  0.13140123  1
  S  S9  4  0.03056662  0.39721914  0.04192336  1
  S  S10  4  0.09374875  0.28012754  0.57853931  1
  N  N11  4  0.14643744  0.02277225  0.68776194  1
  N  N12  4  0.15301025  0.84100344  0.12440711  1
  N  N13  4  0.17072609  0.59211669  0.01298139  1
  N  N14  4  0.21189820  0.35826128  0.54883979  1
