###############################################################################################
#
# CIF file generated by modified CIFWriter class 
# in pymatgen (v2025.03.10) https://pymatgen.org/
#
###############################################################################################
data_PBE+MBD_tight_a93250e8da49b74
_symmetry_space_group_name_H-M   P4_3
_cell_length_a   9.46085905
_cell_length_b   9.46085905
_cell_length_c   12.22300106
_cell_angle_alpha   90.00000000
_cell_angle_beta   90.00000000
_cell_angle_gamma   90.00000000
_symmetry_Int_Tables_number   78
_chemical_formula_moiety   'C8 N4 S3'
_chemical_formula_sum   'C32 S12 N16'
_cell_volume   1094.05459486
_cell_formula_units_Z   4
loop_
 _symmetry_equiv_pos_site_id
 _symmetry_equiv_pos_as_xyz
  1  'x, y, z'
  2  '-y, x, z+3/4'
  3  '-x, -y, z+1/2'
  4  'y, -x, z+1/4'
loop_
 _atom_site_type_symbol
 _atom_site_label
 _atom_site_symmetry_multiplicity
 _atom_site_fract_x
 _atom_site_fract_y
 _atom_site_fract_z
 _atom_site_occupancy
  C  C0  4  -0.09350693  0.64669757  0.10565574  1
  C  C1  4  0.00112674  0.10214789  0.23345320  1
  C  C2  4  0.04788702  0.61371207  0.12983907  1
  C  C3  4  0.08554321  0.22504454  0.24176217  1
  C  C4  4  0.08620488  0.70249625  0.46707908  1
  C  C5  4  0.09599941  0.49979779  0.19143154  1
  C  C6  4  0.21763309  0.76994253  0.48596062  1
  C  C7  4  0.24556917  0.49461078  0.18781744  1
  S  S8  4  -0.01283357  0.38123752  0.26228338  1
  S  S9  4  0.19310632  0.70399923  0.07896354  1
  S  S10  4  0.34792846  0.36096804  0.25084017  1
  N  N11  4  -0.21124953  0.67001974  0.08374100  1
  N  N12  4  -0.02089611  0.64447202  0.45176787  1
  N  N13  4  0.00373831  1.07283982  0.47928905  1
  N  N14  4  0.30984081  0.59487213  0.13142161  1
