###############################################################################################
#
# CIF file generated by modified CIFWriter class 
# in pymatgen (v2025.03.10) https://pymatgen.org/
#
###############################################################################################
data_PBE+MBD_tight_aa13e67740c47e6
_symmetry_space_group_name_H-M   P2_1/m
_cell_length_a   6.48118968
_cell_length_b   27.39176271
_cell_length_c   6.73148918
_cell_angle_alpha   90.00000000
_cell_angle_beta   105.22773523
_cell_angle_gamma   90.00000000
_symmetry_Int_Tables_number   11
_chemical_formula_moiety   'C8 N4 S3'
_chemical_formula_sum   'C32 S12 N16'
_cell_volume   1153.09059066
_cell_formula_units_Z   4
loop_
 _symmetry_equiv_pos_site_id
 _symmetry_equiv_pos_as_xyz
  1  'x, y, z'
  2  '-x, -y, -z'
  3  '-x, y+1/2, -z'
  4  'x, -y+1/2, z'
loop_
 _atom_site_type_symbol
 _atom_site_label
 _atom_site_symmetry_multiplicity
 _atom_site_fract_x
 _atom_site_fract_y
 _atom_site_fract_z
 _atom_site_occupancy
  C  C0  4  0.16914512  -0.00156284  -0.21716879  1
  C  C1  4  0.18472706  0.67172285  0.71179410  1
  C  C2  4  0.22377540  0.04463594  -0.12357162  1
  C  C3  4  0.30207861  0.04749786  0.08600719  1
  C  C4  4  0.31871749  0.65981687  0.90624928  1
  C  C5  4  0.32420893  0.00460886  0.20706547  1
  C  C6  4  0.41421519  0.12876784  -0.17149912  1
  C  C7  4  0.49855531  0.13092380  0.04565773  1
  S  S8  4  0.18330677  0.09488859  -0.29327970  1
  S  S9  4  0.27528419  0.68132648  1.13439661  1
  S  S10  4  0.38504223  0.10196191  0.22374144  1
  N  N11  4  0.07168578  0.68264672  0.55269642  1
  N  N12  4  0.12429540  -0.04004027  -0.28998002  1
  N  N13  4  0.33974646  -0.03120054  0.30379137  1
  N  N14  4  0.48234219  0.65330707  1.28450320  1
