###############################################################################################
#
# CIF file generated by modified CIFWriter class 
# in pymatgen (v2025.03.10) https://pymatgen.org/
#
###############################################################################################
data_PBE+MBD_tight_ab2459513327c9a
_symmetry_space_group_name_H-M   P2/c
_cell_length_a   8.92592822
_cell_length_b   4.10609634
_cell_length_c   27.83520880
_cell_angle_alpha   90.00000000
_cell_angle_beta   102.20021401
_cell_angle_gamma   90.00000000
_symmetry_Int_Tables_number   13
_chemical_formula_moiety   'C8 N4 S3'
_chemical_formula_sum   'C32 S12 N16'
_cell_volume   997.13980692
_cell_formula_units_Z   4
loop_
 _symmetry_equiv_pos_site_id
 _symmetry_equiv_pos_as_xyz
  1  'x, y, z'
  2  '-x, -y, -z'
  3  '-x, y, -z+1/2'
  4  'x, -y, z+1/2'
loop_
 _atom_site_type_symbol
 _atom_site_label
 _atom_site_symmetry_multiplicity
 _atom_site_fract_x
 _atom_site_fract_y
 _atom_site_fract_z
 _atom_site_occupancy
  C  C0  4  0.03558499  0.26132251  0.55833697  1
  C  C1  4  0.08420388  0.22541701  0.65847849  1
  C  C2  4  0.18770611  0.78001454  0.08562794  1
  C  C3  4  0.21245652  0.79700412  0.13602525  1
  C  C4  4  0.30764052  -0.27999353  0.79351867  1
  C  C5  4  0.36649926  -0.19127906  0.84268704  1
  C  C6  4  0.47673409  0.00833745  0.58720605  1
  C  C7  4  0.49920174  1.01341629  0.36078575  1
  S  S8  4  0.28450087  -0.30182366  0.89151976  1
  S  S9  4  0.32337723  0.78959662  0.04812251  1
  S  S10  4  0.39041246  0.16556076  0.67719355  1
  N  N11  4  -0.08848890  0.69525727  0.03571512  1
  N  N12  4  -0.02555305  0.24886427  0.67469712  1
  N  N13  4  0.26454270  1.36051244  0.25277366  1
  N  N14  4  0.42065473  -0.13556613  0.93355329  1
