###############################################################################################
#
# CIF file generated by modified CIFWriter class 
# in pymatgen (v2025.03.10) https://pymatgen.org/
#
###############################################################################################
data_PBE+MBD_tight_acfbec6819fc62f
_symmetry_space_group_name_H-M   Pna2_1
_cell_length_a   11.66908370
_cell_length_b   5.41517809
_cell_length_c   17.61216871
_cell_angle_alpha   90.00000000
_cell_angle_beta   90.00000000
_cell_angle_gamma   90.00000000
_symmetry_Int_Tables_number   33
_chemical_formula_moiety   'C8 N4 S3'
_chemical_formula_sum   'C32 S12 N16'
_cell_volume   1112.91587065
_cell_formula_units_Z   4
loop_
 _symmetry_equiv_pos_site_id
 _symmetry_equiv_pos_as_xyz
  1  'x, y, z'
  2  '-x, -y, z+1/2'
  3  '-x+1/2, y+1/2, z+1/2'
  4  'x+1/2, -y+1/2, z'
loop_
 _atom_site_type_symbol
 _atom_site_label
 _atom_site_symmetry_multiplicity
 _atom_site_fract_x
 _atom_site_fract_y
 _atom_site_fract_z
 _atom_site_occupancy
  C  C0  4  -0.01691522  1.08094426  0.00234707  1
  C  C1  4  0.03678833  0.90833785  0.05152337  1
  C  C2  4  0.07697548  0.73690043  0.19570680  1
  C  C3  4  0.11037951  0.73539674  0.02218436  1
  C  C4  4  0.13659379  0.73548429  -0.05631374  1
  C  C5  4  0.15050113  0.55512930  0.16456845  1
  C  C6  4  0.19737260  0.41406821  0.22276492  1
  C  C7  4  0.23084670  -0.29083115  0.71105925  1
  S  S8  4  -0.00486233  0.95737710  0.14587336  1
  S  S9  4  0.14809028  0.52515161  0.30925267  1
  S  S10  4  0.18607994  0.50165019  0.06954538  1
  N  N11  4  -0.06398868  1.22613602  -0.03534220  1
  N  N12  4  0.06829178  0.74161913  0.27029470  1
  N  N13  4  0.16332589  0.73242857  -0.12008201  1
  N  N14  4  0.17382316  -0.46069819  0.69575256  1
