###############################################################################################
#
# CIF file generated by modified CIFWriter class 
# in pymatgen (v2025.03.10) https://pymatgen.org/
#
###############################################################################################
data_PBE+MBD_tight_ae83824234ff4e0
_symmetry_space_group_name_H-M   Pnc2
_cell_length_a   8.09883854
_cell_length_b   14.12352576
_cell_length_c   9.61621590
_cell_angle_alpha   90.00000000
_cell_angle_beta   90.00000000
_cell_angle_gamma   90.00000000
_symmetry_Int_Tables_number   30
_chemical_formula_moiety   'C8 N4 S3'
_chemical_formula_sum   'C32 S12 N16'
_cell_volume   1099.94272692
_cell_formula_units_Z   4
loop_
 _symmetry_equiv_pos_site_id
 _symmetry_equiv_pos_as_xyz
  1  'x, y, z'
  2  '-x, -y, z'
  3  '-x, y+1/2, z+1/2'
  4  'x, -y+1/2, z+1/2'
loop_
 _atom_site_type_symbol
 _atom_site_label
 _atom_site_symmetry_multiplicity
 _atom_site_fract_x
 _atom_site_fract_y
 _atom_site_fract_z
 _atom_site_occupancy
  C  C0  4  -0.39871178  0.15417543  0.92369186  1
  C  C1  4  -0.39468178  0.14982981  0.43905663  1
  C  C2  4  -0.24572090  0.20279099  0.91728313  1
  C  C3  4  -0.24422961  0.20024984  0.42617252  1
  C  C4  4  0.05927042  0.19419627  0.31338274  1
  C  C5  4  0.06061451  0.20536072  0.80428741  1
  C  C6  4  0.17585342  0.15668003  0.22262093  1
  C  C7  4  0.20902607  0.06124648  0.19189012  1
  S  S8  4  -0.07029854  0.12986457  0.90127697  1
  S  S9  4  -0.06504333  0.12936771  0.42767448  1
  S  S10  4  0.27861954  0.24983036  0.14285038  1
  N  N11  4  -0.52673901  0.11683105  0.93226132  1
  N  N12  4  -0.51986736  0.11000700  0.45252738  1
  N  N13  4  0.16824451  0.16695758  0.71812320  1
  N  N14  4  0.23355276  -0.01757098  0.16248248  1
