###############################################################################################
#
# CIF file generated by modified CIFWriter class 
# in pymatgen (v2025.03.10) https://pymatgen.org/
#
###############################################################################################
data_PBE+MBD_tight_af041c466235aa
_symmetry_space_group_name_H-M   Pca2_1
_cell_length_a   12.25903504
_cell_length_b   13.43597288
_cell_length_c   6.89502860
_cell_angle_alpha   90.00000000
_cell_angle_beta   90.00000000
_cell_angle_gamma   90.00000000
_symmetry_Int_Tables_number   29
_chemical_formula_moiety   'C8 N4 S3'
_chemical_formula_sum   'C32 S12 N16'
_cell_volume   1135.69438107
_cell_formula_units_Z   4
loop_
 _symmetry_equiv_pos_site_id
 _symmetry_equiv_pos_as_xyz
  1  'x, y, z'
  2  '-x, -y, z+1/2'
  3  '-x+1/2, y, z+1/2'
  4  'x+1/2, -y, z'
loop_
 _atom_site_type_symbol
 _atom_site_label
 _atom_site_symmetry_multiplicity
 _atom_site_fract_x
 _atom_site_fract_y
 _atom_site_fract_z
 _atom_site_occupancy
  C  C0  4  -0.13852933  0.21004578  0.40028360  1
  C  C1  4  -0.04639532  0.20463431  0.52368660  1
  C  C2  4  0.04085897  0.14614229  0.47733816  1
  C  C3  4  0.04402480  0.09208844  0.30119641  1
  C  C4  4  0.06058394  0.50129155  0.80307757  1
  C  C5  4  0.08545127  0.31991000  0.73056805  1
  C  C6  4  0.12268310  0.41488941  0.77388979  1
  C  C7  4  0.17601122  0.25667922  0.69330309  1
  S  S8  4  -0.05075700  0.28117528  0.73273371  1
  S  S9  4  0.15940115  0.13163039  0.62146443  1
  S  S10  4  0.23589152  0.41374316  0.27550439  1
  N  N11  4  -0.21459588  0.21457749  0.29925808  1
  N  N12  4  0.00950524  0.57393955  0.82136733  1
  N  N13  4  0.05016248  0.04826082  0.15565278  1
  N  N14  4  0.22552532  0.29598846  0.21130060  1
