###############################################################################################
#
# CIF file generated by modified CIFWriter class 
# in pymatgen (v2025.03.10) https://pymatgen.org/
#
###############################################################################################
data_PBE+MBD_tight_af4d69f998bfe31
_symmetry_space_group_name_H-M   P2_1/c
_cell_length_a   12.98685169
_cell_length_b   9.77242372
_cell_length_c   7.99499952
_cell_angle_alpha   90.00000000
_cell_angle_beta   93.06135911
_cell_angle_gamma   90.00000000
_symmetry_Int_Tables_number   14
_chemical_formula_moiety   'C8 N4 S3'
_chemical_formula_sum   'C32 S12 N16'
_cell_volume   1013.22149419
_cell_formula_units_Z   4
loop_
 _symmetry_equiv_pos_site_id
 _symmetry_equiv_pos_as_xyz
  1  'x, y, z'
  2  '-x, -y, -z'
  3  '-x, y+1/2, -z+1/2'
  4  'x, -y+1/2, z+1/2'
loop_
 _atom_site_type_symbol
 _atom_site_label
 _atom_site_symmetry_multiplicity
 _atom_site_fract_x
 _atom_site_fract_y
 _atom_site_fract_z
 _atom_site_occupancy
  C  C0  4  0.09690013  1.03463112  -0.12464497  1
  C  C1  4  0.18424263  1.03179773  0.45361822  1
  C  C2  4  0.18798280  0.99821806  -0.03260223  1
  C  C3  4  0.21479857  0.86916849  0.02919688  1
  C  C4  4  0.22125321  0.90658513  0.52332592  1
  C  C5  4  0.31569312  0.62575448  0.60723912  1
  C  C6  4  0.31979676  0.90318009  0.59457166  1
  C  C7  4  0.38069116  1.02349805  0.59525534  1
  S  S8  4  0.13143935  0.72805141  0.01507285  1
  S  S9  4  0.28775489  0.38864709  0.51826898  1
  S  S10  4  0.38376459  0.73378523  0.19784344  1
  N  N11  4  0.02190100  1.06260757  -0.20395321  1
  N  N12  4  0.15671968  0.36239272  -0.09938373  1
  N  N13  4  0.36268126  0.99419591  0.10922598  1
  N  N14  4  0.43092553  0.37755943  0.09998448  1
