###############################################################################################
#
# CIF file generated by modified CIFWriter class 
# in pymatgen (v2025.03.10) https://pymatgen.org/
#
###############################################################################################
data_PBE+MBD_tight_b1478a251c34185
_symmetry_space_group_name_H-M   P4_1
_cell_length_a   10.35006929
_cell_length_b   10.35006929
_cell_length_c   11.65248573
_cell_angle_alpha   90.00000000
_cell_angle_beta   90.00000000
_cell_angle_gamma   90.00000000
_symmetry_Int_Tables_number   76
_chemical_formula_moiety   'C8 N4 S3'
_chemical_formula_sum   'C32 S12 N16'
_cell_volume   1248.26011474
_cell_formula_units_Z   4
loop_
 _symmetry_equiv_pos_site_id
 _symmetry_equiv_pos_as_xyz
  1  'x, y, z'
  2  '-y, x, z+1/4'
  3  '-x, -y, z+1/2'
  4  'y, -x, z+3/4'
loop_
 _atom_site_type_symbol
 _atom_site_label
 _atom_site_symmetry_multiplicity
 _atom_site_fract_x
 _atom_site_fract_y
 _atom_site_fract_z
 _atom_site_occupancy
  C  C0  4  0.15151173  0.68102865  0.51112530  1
  C  C1  4  0.16262130  0.49841189  0.39914552  1
  C  C2  4  0.17897447  0.37065913  0.36038340  1
  C  C3  4  0.18519424  0.54831355  0.50800861  1
  C  C4  4  0.19406495  0.38429448  1.00372126  1
  C  C5  4  0.28449315  0.30585896  0.94442007  1
  C  C6  4  0.34389970  0.58905441  0.68482125  1
  C  C7  4  0.44848616  0.47035338  0.96607658  1
  S  S8  4  0.10208935  0.62164159  0.31388997  1
  S  S9  4  0.16158284  0.77755135  0.63647304  1
  S  S10  4  0.24462102  0.46508780  0.62767128  1
  N  N11  4  0.10800509  0.73268581  0.41496374  1
  N  N12  4  0.12041619  0.44554228  1.05641898  1
  N  N13  4  0.18963794  0.26459350  0.32802375  1
  N  N14  4  0.42408992  0.48040374  0.23671102  1
