###############################################################################################
#
# CIF file generated by modified CIFWriter class 
# in pymatgen (v2025.03.10) https://pymatgen.org/
#
###############################################################################################
data_PBE+MBD_tight_b3d5d3952402c3d
_symmetry_space_group_name_H-M   P4_1
_cell_length_a   14.60976117
_cell_length_b   14.60976117
_cell_length_c   5.07339610
_cell_angle_alpha   90.00000000
_cell_angle_beta   90.00000000
_cell_angle_gamma   90.00000000
_symmetry_Int_Tables_number   76
_chemical_formula_moiety   'C8 N4 S3'
_chemical_formula_sum   'C32 S12 N16'
_cell_volume   1082.89164640
_cell_formula_units_Z   4
loop_
 _symmetry_equiv_pos_site_id
 _symmetry_equiv_pos_as_xyz
  1  'x, y, z'
  2  '-y, x, z+1/4'
  3  '-x, -y, z+1/2'
  4  'y, -x, z+3/4'
loop_
 _atom_site_type_symbol
 _atom_site_label
 _atom_site_symmetry_multiplicity
 _atom_site_fract_x
 _atom_site_fract_y
 _atom_site_fract_z
 _atom_site_occupancy
  C  C0  4  -0.12823636  0.70242751  0.34510237  1
  C  C1  4  -0.03243820  0.68761501  0.34835859  1
  C  C2  4  -0.01771693  0.79486493  -0.00749569  1
  C  C3  4  0.02282788  0.73291388  0.17359542  1
  C  C4  4  0.10673557  0.57044695  0.47047881  1
  C  C5  4  0.16168823  0.61538559  0.27965419  1
  C  C6  4  0.23943679  0.56290645  0.23036522  1
  C  C7  4  0.31150533  0.58405072  0.05720536  1
  S  S8  4  0.00039733  0.60859509  0.59186076  1
  S  S9  4  0.14201827  0.72281097  0.13689182  1
  S  S10  4  0.23705558  0.46628172  0.42899213  1
  N  N11  4  -0.20741414  0.71293428  0.34529553  1
  N  N12  4  -0.05263068  0.84402941  -0.15811242  1
  N  N13  4  0.13788674  0.49213536  0.56431338  1
  N  N14  4  0.37097841  0.60365512  -0.08532733  1
