###############################################################################################
#
# CIF file generated by modified CIFWriter class 
# in pymatgen (v2025.03.10) https://pymatgen.org/
#
###############################################################################################
data_PBE+MBD_tight_b478bc16e93a381
_symmetry_space_group_name_H-M   P4_1
_cell_length_a   13.55784328
_cell_length_b   13.55784328
_cell_length_c   6.45074928
_cell_angle_alpha   90.00000000
_cell_angle_beta   90.00000000
_cell_angle_gamma   90.00000000
_symmetry_Int_Tables_number   76
_chemical_formula_moiety   'C8 N4 S3'
_chemical_formula_sum   'C32 S12 N16'
_cell_volume   1185.74521824
_cell_formula_units_Z   4
loop_
 _symmetry_equiv_pos_site_id
 _symmetry_equiv_pos_as_xyz
  1  'x, y, z'
  2  '-y, x, z+1/4'
  3  '-x, -y, z+1/2'
  4  'y, -x, z+3/4'
loop_
 _atom_site_type_symbol
 _atom_site_label
 _atom_site_symmetry_multiplicity
 _atom_site_fract_x
 _atom_site_fract_y
 _atom_site_fract_z
 _atom_site_occupancy
  C  C0  4  -0.10091539  0.34670006  0.06448966  1
  C  C1  4  -0.08069802  0.44905134  0.45853072  1
  C  C2  4  -0.03028166  0.31996304  0.21593506  1
  C  C3  4  -0.02021394  0.36873773  0.40020917  1
  C  C4  4  0.16130493  0.26975605  0.22319979  1
  C  C5  4  0.17106813  0.32184987  0.41194201  1
  C  C6  4  0.26723874  0.35594441  0.43284287  1
  C  C7  4  0.30897250  0.41002070  0.59684075  1
  S  S8  4  0.04674334  0.22051504  0.14146581  1
  S  S9  4  0.07286941  0.34079581  0.58378212  1
  S  S10  4  0.31854239  0.66633415  -0.03188176  1
  N  N11  4  -0.15677510  0.36535162  -0.06744088  1
  N  N12  4  -0.12731258  0.51598982  0.51606619  1
  N  N13  4  0.24047409  0.26252891  0.10486362  1
  N  N14  4  0.34446150  0.45421167  0.73268941  1
