###############################################################################################
#
# CIF file generated by modified CIFWriter class 
# in pymatgen (v2025.03.10) https://pymatgen.org/
#
###############################################################################################
data_PBE+MBD_tight_b5572ec05adcf7a
_symmetry_space_group_name_H-M   P2_1/c
_cell_length_a   10.00441189
_cell_length_b   7.11709427
_cell_length_c   14.87895701
_cell_angle_alpha   90.00000000
_cell_angle_beta   80.03401135
_cell_angle_gamma   90.00000000
_symmetry_Int_Tables_number   14
_chemical_formula_moiety   'C8 N4 S3'
_chemical_formula_sum   'C32 S12 N16'
_cell_volume   1043.43069433
_cell_formula_units_Z   4
loop_
 _symmetry_equiv_pos_site_id
 _symmetry_equiv_pos_as_xyz
  1  'x, y, z'
  2  '-x, -y, -z'
  3  '-x, y+1/2, -z+1/2'
  4  'x, -y+1/2, z+1/2'
loop_
 _atom_site_type_symbol
 _atom_site_label
 _atom_site_symmetry_multiplicity
 _atom_site_fract_x
 _atom_site_fract_y
 _atom_site_fract_z
 _atom_site_occupancy
  C  C0  4  0.14551103  0.72409530  0.81511714  1
  C  C1  4  0.16077635  0.73270477  1.00390929  1
  C  C2  4  0.16611633  0.55763423  0.86309113  1
  C  C3  4  0.17393730  0.56180829  0.95418990  1
  C  C4  4  0.29890552  0.22831712  0.84534618  1
  C  C5  4  0.30715215  0.23116481  0.93950816  1
  C  C6  4  0.39871451  0.38968503  0.29985155  1
  C  C7  4  0.42946072  0.06494724  0.70674912  1
  S  S8  4  0.17842154  0.35096118  0.79587298  1
  S  S9  4  0.19702514  0.36351112  1.02097237  1
  S  S10  4  0.48903518  0.01438760  0.87822090  1
  N  N11  4  0.12778925  0.85900777  0.77414928  1
  N  N12  4  0.14822988  -0.36998614  0.54742800  1
  N  N13  4  0.40265147  0.12739169  0.96577434  1
  N  N14  4  0.46101112  0.47516785  0.12996451  1
