###############################################################################################
#
# CIF file generated by modified CIFWriter class 
# in pymatgen (v2025.03.10) https://pymatgen.org/
#
###############################################################################################
data_PBE+MBD_tight_b64534c2e6f14d5
_symmetry_space_group_name_H-M   P4_1
_cell_length_a   10.44175258
_cell_length_b   10.44175258
_cell_length_c   9.94143197
_cell_angle_alpha   90.00000000
_cell_angle_beta   90.00000000
_cell_angle_gamma   90.00000000
_symmetry_Int_Tables_number   76
_chemical_formula_moiety   'C8 N4 S3'
_chemical_formula_sum   'C32 S12 N16'
_cell_volume   1083.91628513
_cell_formula_units_Z   4
loop_
 _symmetry_equiv_pos_site_id
 _symmetry_equiv_pos_as_xyz
  1  'x, y, z'
  2  '-y, x, z+1/4'
  3  '-x, -y, z+1/2'
  4  'y, -x, z+3/4'
loop_
 _atom_site_type_symbol
 _atom_site_label
 _atom_site_symmetry_multiplicity
 _atom_site_fract_x
 _atom_site_fract_y
 _atom_site_fract_z
 _atom_site_occupancy
  C  C0  4  0.08226782  0.31495243  0.55965395  1
  C  C1  4  0.15193327  0.26596605  0.17756236  1
  C  C2  4  0.17994318  0.31298776  0.30792785  1
  C  C3  4  0.20518039  0.25302289  0.74049953  1
  C  C4  4  0.20868575  0.30014899  0.60971507  1
  C  C5  4  0.21485005  0.69089938  0.57093685  1
  C  C6  4  0.27686073  0.59225544  0.02373909  1
  C  C7  4  0.30249501  0.30963995  0.35658017  1
  S  S8  4  0.04353980  0.36743432  0.39580758  1
  S  S9  4  0.04633146  0.23964011  0.78946702  1
  S  S10  4  0.34444633  0.65220202  0.27339736  1
  N  N11  4  -0.01149706  0.28490968  0.64280764  1
  N  N12  4  0.12545437  0.22328486  0.07287854  1
  N  N13  4  0.17737271  0.60456712  0.63397658  1
  N  N14  4  0.25624043  0.50145396  -0.04117918  1
