###############################################################################################
#
# CIF file generated by modified CIFWriter class 
# in pymatgen (v2025.03.10) https://pymatgen.org/
#
###############################################################################################
data_PBE+MBD_tight_b74ba47b7d4ea02
_symmetry_space_group_name_H-M   Cc
_cell_length_a   9.72424411
_cell_length_b   9.19312771
_cell_length_c   13.01909626
_cell_angle_alpha   90.00000000
_cell_angle_beta   113.27680758
_cell_angle_gamma   90.00000000
_symmetry_Int_Tables_number   9
_chemical_formula_moiety   'C8 N4 S3'
_chemical_formula_sum   'C32 S12 N16'
_cell_volume   1069.12739630
_cell_formula_units_Z   4
loop_
 _symmetry_equiv_pos_site_id
 _symmetry_equiv_pos_as_xyz
  1  'x, y, z'
  2  'x+1/2, -y+1/2, z+1/2'
  3  'x+1/2, y+1/2, z'
  4  'x, -y, z+1/2'
loop_
 _atom_site_type_symbol
 _atom_site_label
 _atom_site_symmetry_multiplicity
 _atom_site_fract_x
 _atom_site_fract_y
 _atom_site_fract_z
 _atom_site_occupancy
  C  C0  4  0.04900836  0.84543439  0.35805056  1
  C  C1  4  0.07204340  0.08749095  0.96065897  1
  C  C2  4  0.08763631  0.74253369  0.21064003  1
  C  C3  4  0.15730469  0.19941311  0.82015183  1
  C  C4  4  0.34776733  0.21326049  0.68573397  1
  C  C5  4  0.40600266  0.82767351  0.10602180  1
  C  C6  4  0.41632848  0.16796098  0.79451629  1
  C  C7  4  0.55617452  0.90443621  0.33255436  1
  S  S8  4  -0.12590885  0.19584713  0.75596349  1
  S  S9  4  0.18733510  0.32497213  0.63300755  1
  S  S10  4  0.34994920  0.19704684  0.90031707  1
  N  N11  4  -0.05997449  0.73833879  0.16687631  1
  N  N12  4  0.09185462  0.96989501  0.54521229  1
  N  N13  4  0.45252250  0.86212988  0.03962125  1
  N  N14  4  0.67521031  0.95668258  0.36766817  1
