###############################################################################################
#
# CIF file generated by modified CIFWriter class 
# in pymatgen (v2025.03.10) https://pymatgen.org/
#
###############################################################################################
data_PBE+MBD_tight_ba943f1da9d74a1
_symmetry_space_group_name_H-M   P2/c
_cell_length_a   21.24964480
_cell_length_b   7.15139948
_cell_length_c   7.17627727
_cell_angle_alpha   90.00000000
_cell_angle_beta   106.01478162
_cell_angle_gamma   90.00000000
_symmetry_Int_Tables_number   13
_chemical_formula_moiety   'C8 N4 S3'
_chemical_formula_sum   'C32 S12 N16'
_cell_volume   1048.21752856
_cell_formula_units_Z   4
loop_
 _symmetry_equiv_pos_site_id
 _symmetry_equiv_pos_as_xyz
  1  'x, y, z'
  2  '-x, -y, -z'
  3  '-x, y, -z+1/2'
  4  'x, -y, z+1/2'
loop_
 _atom_site_type_symbol
 _atom_site_label
 _atom_site_symmetry_multiplicity
 _atom_site_fract_x
 _atom_site_fract_y
 _atom_site_fract_z
 _atom_site_occupancy
  C  C0  4  0.09593717  0.73029371  0.17913426  1
  C  C1  4  0.13994128  0.77773809  0.58649863  1
  C  C2  4  0.16373020  0.25830300  -0.22423144  1
  C  C3  4  0.18444159  0.23804396  -0.02758011  1
  C  C4  4  0.29231394  0.26474464  -0.23774625  1
  C  C5  4  0.31311935  0.24810813  -0.03252930  1
  C  C6  4  0.38121281  0.75230518  0.53055705  1
  C  C7  4  0.41848078  0.23838357  0.22511305  1
  S  S8  4  0.21142041  0.27340541  -0.38869782  1
  S  S9  4  0.26491777  0.77218681  0.62752498  1
  S  S10  4  0.41230057  0.73544688  0.33099898  1
  N  N11  4  0.04072530  0.28215476  -0.40495913  1
  N  N12  4  0.10948619  0.79363715  0.69823325  1
  N  N13  4  0.33925860  0.27458194  -0.32593375  1
  N  N14  4  0.44774500  0.23269330  0.38855668  1
