###############################################################################################
#
# CIF file generated by modified CIFWriter class 
# in pymatgen (v2025.03.10) https://pymatgen.org/
#
###############################################################################################
data_PBE+MBD_tight_bcfaa6c18708de
_symmetry_space_group_name_H-M   Pna2_1
_cell_length_a   12.25671814
_cell_length_b   12.15071685
_cell_length_c   7.01802626
_cell_angle_alpha   90.00000000
_cell_angle_beta   90.00000000
_cell_angle_gamma   90.00000000
_symmetry_Int_Tables_number   33
_chemical_formula_moiety   'C8 N4 S3'
_chemical_formula_sum   'C32 S12 N16'
_cell_volume   1045.17999488
_cell_formula_units_Z   4
loop_
 _symmetry_equiv_pos_site_id
 _symmetry_equiv_pos_as_xyz
  1  'x, y, z'
  2  '-x, -y, z+1/2'
  3  '-x+1/2, y+1/2, z+1/2'
  4  'x+1/2, -y+1/2, z'
loop_
 _atom_site_type_symbol
 _atom_site_label
 _atom_site_symmetry_multiplicity
 _atom_site_fract_x
 _atom_site_fract_y
 _atom_site_fract_z
 _atom_site_occupancy
  C  C0  4  -0.11778855  0.14428969  -0.14835868  1
  C  C1  4  -0.01458351  0.18199449  -0.08610840  1
  C  C2  4  0.05464482  -0.00492926  -0.09352344  1
  C  C3  4  0.06778181  0.10833052  -0.05228434  1
  C  C4  4  0.07262436  0.32626980  0.16047676  1
  C  C5  4  0.15412758  0.24709949  0.20254631  1
  C  C6  4  0.19684980  0.26620401  0.38288486  1
  C  C7  4  0.22806087  0.70054091  0.98289584  1
  S  S8  4  -0.00515391  0.32570926  -0.05182925  1
  S  S9  4  0.13451870  0.38320622  0.47542797  1
  S  S10  4  0.19512221  0.14184876  0.04835114  1
  N  N11  4  -0.20422020  0.11530050  -0.19643839  1
  N  N12  4  0.04756141  -0.09844251  -0.12947053  1
  N  N13  4  0.05368740  0.40172473  0.29125236  1
  N  N14  4  0.16870625  0.64457597  1.06941731  1
