###############################################################################################
#
# CIF file generated by modified CIFWriter class 
# in pymatgen (v2025.03.10) https://pymatgen.org/
#
###############################################################################################
data_PBE+MBD_tight_bea380b7fc4db4c
_symmetry_space_group_name_H-M   P2_12_12_1
_cell_length_a   9.81126717
_cell_length_b   13.66331159
_cell_length_c   7.76658146
_cell_angle_alpha   90.00000000
_cell_angle_beta   90.00000000
_cell_angle_gamma   90.00000000
_symmetry_Int_Tables_number   19
_chemical_formula_moiety   'C8 N4 S3'
_chemical_formula_sum   'C32 S12 N16'
_cell_volume   1041.14441991
_cell_formula_units_Z   4
loop_
 _symmetry_equiv_pos_site_id
 _symmetry_equiv_pos_as_xyz
  1  'x, y, z'
  2  '-x, y+1/2, -z+1/2'
  3  '-x+1/2, -y, z+1/2'
  4  'x+1/2, -y+1/2, -z'
loop_
 _atom_site_type_symbol
 _atom_site_label
 _atom_site_symmetry_multiplicity
 _atom_site_fract_x
 _atom_site_fract_y
 _atom_site_fract_z
 _atom_site_occupancy
  C  C0  4  -0.06581278  0.66108896  0.61531712  1
  C  C1  4  -0.03321120  0.56187416  0.59160350  1
  C  C2  4  0.00996783  0.42881991  0.09516372  1
  C  C3  4  0.02279247  0.62966136  0.11204543  1
  C  C4  4  0.08805394  0.42125674  0.53704639  1
  C  C5  4  0.09362886  0.52504514  0.54468388  1
  C  C6  4  0.13238716  0.47645241  0.04602821  1
  C  C7  4  0.13677571  0.57688564  0.04919941  1
  S  S8  4  -0.14547880  0.46461215  0.61495165  1
  S  S9  4  0.22880660  0.34624222  0.48330723  1
  S  S10  4  0.23109861  0.60064186  0.48873319  1
  N  N11  4  -0.09392419  0.39373420  0.13433865  1
  N  N12  4  -0.08725600  0.74413845  0.63564235  1
  N  N13  4  -0.06953664  0.67346742  0.16693288  1
  N  N14  4  -0.03049068  0.38026817  0.57251574  1
