###############################################################################################
#
# CIF file generated by modified CIFWriter class 
# in pymatgen (v2025.03.10) https://pymatgen.org/
#
###############################################################################################
data_PBE+MBD_tight_c042d1839b668c2
_symmetry_space_group_name_H-M   Pca2_1
_cell_length_a   9.20621869
_cell_length_b   9.87578952
_cell_length_c   11.97445643
_cell_angle_alpha   90.00000000
_cell_angle_beta   90.00000000
_cell_angle_gamma   90.00000000
_symmetry_Int_Tables_number   29
_chemical_formula_moiety   'C8 N4 S3'
_chemical_formula_sum   'C32 S12 N16'
_cell_volume   1088.70174920
_cell_formula_units_Z   4
loop_
 _symmetry_equiv_pos_site_id
 _symmetry_equiv_pos_as_xyz
  1  'x, y, z'
  2  '-x, -y, z+1/2'
  3  '-x+1/2, y, z+1/2'
  4  'x+1/2, -y, z'
loop_
 _atom_site_type_symbol
 _atom_site_label
 _atom_site_symmetry_multiplicity
 _atom_site_fract_x
 _atom_site_fract_y
 _atom_site_fract_z
 _atom_site_occupancy
  C  C0  4  -0.24791914  0.83018463  0.09871268  1
  C  C1  4  -0.11331648  0.82916058  0.15379798  1
  C  C2  4  0.02577682  0.81605311  0.11026495  1
  C  C3  4  0.07650474  0.58523106  0.58945746  1
  C  C4  4  0.12867581  0.82573676  0.19816627  1
  C  C5  4  0.18332216  0.68581476  0.57244243  1
  C  C6  4  0.21924537  0.67859574  -0.01314012  1
  C  C7  4  0.22613931  0.57281803  -0.09288599  1
  S  S8  4  -0.10050004  0.85274924  0.29693548  1
  S  S9  4  0.07265468  0.79274954  -0.03014739  1
  S  S10  4  0.18252613  0.81570873  0.67409726  1
  N  N11  4  -0.01194439  0.50385271  0.60788457  1
  N  N12  4  0.07783193  0.84427026  0.30036378  1
  N  N13  4  0.13798502  0.16449645  0.05660072  1
  N  N14  4  0.23212326  0.48673677  -0.15943303  1
