###############################################################################################
#
# CIF file generated by modified CIFWriter class 
# in pymatgen (v2025.03.10) https://pymatgen.org/
#
###############################################################################################
data_PBE+MBD_tight_c1f6298539b125a
_symmetry_space_group_name_H-M   P2/c
_cell_length_a   19.32345138
_cell_length_b   6.45501320
_cell_length_c   8.85429048
_cell_angle_alpha   90.00000000
_cell_angle_beta   76.66222351
_cell_angle_gamma   90.00000000
_symmetry_Int_Tables_number   13
_chemical_formula_moiety   'C8 N4 S3'
_chemical_formula_sum   'C32 S12 N16'
_cell_volume   1074.63376952
_cell_formula_units_Z   4
loop_
 _symmetry_equiv_pos_site_id
 _symmetry_equiv_pos_as_xyz
  1  'x, y, z'
  2  '-x, -y, -z'
  3  '-x, y, -z+1/2'
  4  'x, -y, z+1/2'
loop_
 _atom_site_type_symbol
 _atom_site_label
 _atom_site_symmetry_multiplicity
 _atom_site_fract_x
 _atom_site_fract_y
 _atom_site_fract_z
 _atom_site_occupancy
  C  C0  4  0.10101678  0.48497449  0.86343620  1
  C  C1  4  0.11946355  0.08975011  0.70514235  1
  C  C2  4  0.15887867  0.64823253  0.36510236  1
  C  C3  4  0.16715526  0.83558493  0.29199078  1
  C  C4  4  0.30048440  0.61293794  0.32559295  1
  C  C5  4  0.30832824  0.19043734  0.75195843  1
  C  C6  4  0.37540543  0.82447504  0.15292665  1
  C  C7  4  0.40421485  0.00670807  0.55953215  1
  S  S8  4  0.22191301  0.54349711  0.46164329  1
  S  S9  4  0.24183870  0.00095732  0.78617439  1
  S  S10  4  0.42087039  0.59606852  0.16427649  1
  N  N11  4  0.05522981  0.39706296  0.36382621  1
  N  N12  4  0.08377561  0.02501678  0.62619642  1
  N  N13  4  0.35494540  0.51647525  0.78766274  1
  N  N14  4  0.42854212  -0.13338307  0.48214498  1
