###############################################################################################
#
# CIF file generated by modified CIFWriter class 
# in pymatgen (v2025.03.10) https://pymatgen.org/
#
###############################################################################################
data_PBE+MBD_tight_c328f887693a3c8
_symmetry_space_group_name_H-M   P-4
_cell_length_a   16.44395032
_cell_length_b   16.44395032
_cell_length_c   3.99702848
_cell_angle_alpha   90.00000000
_cell_angle_beta   90.00000000
_cell_angle_gamma   90.00000000
_symmetry_Int_Tables_number   81
_chemical_formula_moiety   'C8 N4 S3'
_chemical_formula_sum   'C32 S12 N16'
_cell_volume   1080.81049871
_cell_formula_units_Z   4
loop_
 _symmetry_equiv_pos_site_id
 _symmetry_equiv_pos_as_xyz
  1  'x, y, z'
  2  'y, -x, -z'
  3  '-x, -y, z'
  4  '-y, x, -z'
loop_
 _atom_site_type_symbol
 _atom_site_label
 _atom_site_symmetry_multiplicity
 _atom_site_fract_x
 _atom_site_fract_y
 _atom_site_fract_z
 _atom_site_occupancy
  C  C0  4  0.11116238  0.63274182  0.46525592  1
  C  C1  4  0.12520342  0.13185622  0.70681125  1
  C  C2  4  0.14848873  0.79002774  0.29846186  1
  C  C3  4  0.17753992  0.27638998  0.96518099  1
  C  C4  4  0.18897703  0.60829109  0.34713387  1
  C  C5  4  0.19866504  0.52515684  0.39678506  1
  C  C6  4  0.22241252  0.76477168  0.17677597  1
  C  C7  4  0.26596015  0.47647840  0.31389360  1
  S  S8  4  0.06848192  0.73149730  0.46178345  1
  S  S9  4  0.11108582  0.48562274  0.57439306  1
  S  S10  4  0.26497648  0.66684459  0.15913996  1
  N  N11  4  0.05495687  0.12239259  0.71113743  1
  N  N12  4  0.06507920  0.57460237  0.59299048  1
  N  N13  4  0.13314145  0.32217250  1.09308635  1
  N  N14  4  0.32058321  0.43427332  0.24660116  1
