###############################################################################################
#
# CIF file generated by modified CIFWriter class 
# in pymatgen (v2025.03.10) https://pymatgen.org/
#
###############################################################################################
data_PBE+MBD_tight_c3d3d5b8e698e2f
_symmetry_space_group_name_H-M   P222_1
_cell_length_a   10.62538216
_cell_length_b   12.81147835
_cell_length_c   10.58675945
_cell_angle_alpha   90.00000000
_cell_angle_beta   90.00000000
_cell_angle_gamma   90.00000000
_symmetry_Int_Tables_number   17
_chemical_formula_moiety   'C8 N4 S3'
_chemical_formula_sum   'C32 S12 N16'
_cell_volume   1441.14225216
_cell_formula_units_Z   4
loop_
 _symmetry_equiv_pos_site_id
 _symmetry_equiv_pos_as_xyz
  1  'x, y, z'
  2  '-x, -y, z+1/2'
  3  'x, -y, -z'
  4  '-x, y, -z+1/2'
loop_
 _atom_site_type_symbol
 _atom_site_label
 _atom_site_symmetry_multiplicity
 _atom_site_fract_x
 _atom_site_fract_y
 _atom_site_fract_z
 _atom_site_occupancy
  C  C0  4  0.03880570  0.28727775  0.40894426  1
  C  C1  4  0.15259326  0.48275428  0.33838233  1
  C  C2  4  0.15894847  0.29267121  0.35135504  1
  C  C3  4  0.21030880  0.38531573  0.31355731  1
  C  C4  4  0.30674219  0.18688617  0.18454912  1
  C  C5  4  0.35872179  0.28385057  0.14540851  1
  C  C6  4  0.41978061  0.27120354  0.03042352  1
  C  C7  4  0.48901883  0.34431006  -0.04018637  1
  S  S8  4  0.22820913  0.16817062  0.32976116  1
  S  S9  4  0.35289745  0.40096449  0.23019512  1
  S  S10  4  0.40419864  0.14219399  -0.01646680  1
  N  N11  4  -0.06178322  0.27764766  0.45150468  1
  N  N12  4  0.11260362  0.43402731  0.64229495  1
  N  N13  4  0.32245151  0.10625665  0.10838159  1
  N  N14  4  0.45040904  0.40214137  0.59964512  1
