###############################################################################################
#
# CIF file generated by modified CIFWriter class 
# in pymatgen (v2025.03.10) https://pymatgen.org/
#
###############################################################################################
data_PBE+MBD_tight_c78193d1ef91954
_symmetry_space_group_name_H-M   P2_1/c
_cell_length_a   9.46627953
_cell_length_b   10.62240228
_cell_length_c   11.18579736
_cell_angle_alpha   90.00000000
_cell_angle_beta   115.55511911
_cell_angle_gamma   90.00000000
_symmetry_Int_Tables_number   14
_chemical_formula_moiety   'C8 N4 S3'
_chemical_formula_sum   'C32 S12 N16'
_cell_volume   1014.74691594
_cell_formula_units_Z   4
loop_
 _symmetry_equiv_pos_site_id
 _symmetry_equiv_pos_as_xyz
  1  'x, y, z'
  2  '-x, -y, -z'
  3  '-x, y+1/2, -z+1/2'
  4  'x, -y+1/2, z+1/2'
loop_
 _atom_site_type_symbol
 _atom_site_label
 _atom_site_symmetry_multiplicity
 _atom_site_fract_x
 _atom_site_fract_y
 _atom_site_fract_z
 _atom_site_occupancy
  C  C0  4  -0.07969882  -0.02893106  0.67654837  1
  C  C1  4  0.05102222  0.57127828  0.15947822  1
  C  C2  4  0.18921911  -0.00826456  0.68296300  1
  C  C3  4  0.28858921  -0.08787533  0.65112117  1
  C  C4  4  0.31051791  0.51914661  0.58470605  1
  C  C5  4  0.43873619  0.37843087  0.34688251  1
  C  C6  4  0.46502679  0.54317035  0.68130556  1
  C  C7  4  0.49049382  0.31509378  0.46973935  1
  S  S8  4  0.05863001  0.71987723  0.09751001  1
  S  S9  4  0.23911583  0.14692438  0.73796834  1
  S  S10  4  0.47607480  0.54161602  0.16917732  1
  N  N11  4  -0.19125137  0.00318058  0.68760424  1
  N  N12  4  0.18604141  1.00416955  0.00252035  1
  N  N13  4  0.23492351  -0.20124051  0.60582736  1
  N  N14  4  0.47153800  0.73766858  0.42956699  1
