###############################################################################################
#
# CIF file generated by modified CIFWriter class 
# in pymatgen (v2025.03.10) https://pymatgen.org/
#
###############################################################################################
data_PBE+MBD_tight_c7c7664a07294b8
_symmetry_space_group_name_H-M   P2_1/c
_cell_length_a   10.98217537
_cell_length_b   6.56620481
_cell_length_c   15.67099886
_cell_angle_alpha   90.00000000
_cell_angle_beta   87.11750481
_cell_angle_gamma   90.00000000
_symmetry_Int_Tables_number   14
_chemical_formula_moiety   'C8 N4 S3'
_chemical_formula_sum   'C32 S12 N16'
_cell_volume   1128.62494950
_cell_formula_units_Z   4
loop_
 _symmetry_equiv_pos_site_id
 _symmetry_equiv_pos_as_xyz
  1  'x, y, z'
  2  '-x, -y, -z'
  3  '-x, y+1/2, -z+1/2'
  4  'x, -y+1/2, z+1/2'
loop_
 _atom_site_type_symbol
 _atom_site_label
 _atom_site_symmetry_multiplicity
 _atom_site_fract_x
 _atom_site_fract_y
 _atom_site_fract_z
 _atom_site_occupancy
  C  C0  4  0.14812519  0.91979042  0.36431749  1
  C  C1  4  0.25270104  0.92019832  0.41376849  1
  C  C2  4  0.25457057  0.74485257  0.46306206  1
  C  C3  4  0.26006445  0.31309377  0.75504357  1
  C  C4  4  0.26364089  0.23812926  0.67019820  1
  C  C5  4  0.34045460  0.81777225  1.02109083  1
  C  C6  4  0.36267424  0.32780437  0.80072712  1
  C  C7  4  0.48036232  0.30308343  0.76106185  1
  S  S8  4  0.11184323  1.12049545  0.29483122  1
  S  S9  4  0.12685845  0.60155400  0.44275549  1
  S  S10  4  0.36219177  0.38657513  0.91125705  1
  N  N11  4  0.07418580  0.76121262  0.37246341  1
  N  N12  4  0.26038669  1.33374393  0.10229362  1
  N  N13  4  0.40994617  0.62601777  0.56972700  1
  N  N14  4  0.42106692  0.70551714  0.27006335  1
