###############################################################################################
#
# CIF file generated by modified CIFWriter class 
# in pymatgen (v2025.03.10) https://pymatgen.org/
#
###############################################################################################
data_PBE+MBD_tight_caa8a1d95f3cd5b
_symmetry_space_group_name_H-M   Pnn2
_cell_length_a   9.60131861
_cell_length_b   16.72694894
_cell_length_c   7.49089400
_cell_angle_alpha   90.00000000
_cell_angle_beta   90.00000000
_cell_angle_gamma   90.00000000
_symmetry_Int_Tables_number   34
_chemical_formula_moiety   'C8 N4 S3'
_chemical_formula_sum   'C32 S12 N16'
_cell_volume   1203.04331567
_cell_formula_units_Z   4
loop_
 _symmetry_equiv_pos_site_id
 _symmetry_equiv_pos_as_xyz
  1  'x, y, z'
  2  '-x, -y, z'
  3  '-x+1/2, y+1/2, z+1/2'
  4  'x+1/2, -y+1/2, z+1/2'
loop_
 _atom_site_type_symbol
 _atom_site_label
 _atom_site_symmetry_multiplicity
 _atom_site_fract_x
 _atom_site_fract_y
 _atom_site_fract_z
 _atom_site_occupancy
  C  C0  4  -0.22063538  0.85908490  1.17527442  1
  C  C1  4  -0.19398102  0.87958255  0.99678289  1
  C  C2  4  -0.08402871  0.89274991  0.72561820  1
  C  C3  4  -0.07469782  0.86024714  0.90048797  1
  C  C4  4  0.16930238  0.33400914  0.44471796  1
  C  C5  4  0.18332126  0.38850750  0.09267597  1
  C  C6  4  0.19298443  0.86729387  0.68474426  1
  C  C7  4  0.20086771  0.83816415  0.85531291  1
  S  S8  4  0.04111837  0.87896558  0.55580470  1
  S  S9  4  0.06059206  0.80072229  0.98244954  1
  S  S10  4  0.19501342  0.56660264  0.35912088  1
  N  N11  4  -0.23578003  0.84135555  1.32454788  1
  N  N12  4  -0.19725081  0.93437685  0.68854303  1
  N  N13  4  0.06327209  0.33080796  0.52056735  1
  N  N14  4  0.08149625  0.40321035  0.01415675  1
