###############################################################################################
#
# CIF file generated by modified CIFWriter class 
# in pymatgen (v2025.03.10) https://pymatgen.org/
#
###############################################################################################
data_PBE+MBD_tight_cad5e29e6b1e665
_symmetry_space_group_name_H-M   P2_12_12_1
_cell_length_a   13.22172641
_cell_length_b   7.01280729
_cell_length_c   11.19241346
_cell_angle_alpha   90.00000000
_cell_angle_beta   90.00000000
_cell_angle_gamma   90.00000000
_symmetry_Int_Tables_number   19
_chemical_formula_moiety   'C8 N4 S3'
_chemical_formula_sum   'C32 S12 N16'
_cell_volume   1037.77646184
_cell_formula_units_Z   4
loop_
 _symmetry_equiv_pos_site_id
 _symmetry_equiv_pos_as_xyz
  1  'x, y, z'
  2  'x+1/2, -y+1/2, -z'
  3  '-x, y+1/2, -z+1/2'
  4  '-x+1/2, -y, z+1/2'
loop_
 _atom_site_type_symbol
 _atom_site_label
 _atom_site_symmetry_multiplicity
 _atom_site_fract_x
 _atom_site_fract_y
 _atom_site_fract_z
 _atom_site_occupancy
  C  C0  4  -0.07587153  0.65493149  0.55391663  1
  C  C1  4  -0.04284615  -0.01409817  0.29102744  1
  C  C2  4  -0.01407515  0.49063647  0.56331180  1
  C  C3  4  0.03791948  0.15846187  0.46102140  1
  C  C4  4  0.03840532  0.02915897  0.36707738  1
  C  C5  4  0.08070118  0.50637674  0.61208861  1
  C  C6  4  0.11485455  0.68501644  0.65549219  1
  C  C7  4  0.13659592  0.17440220  0.50921127  1
  S  S8  4  -0.07014270  0.27808984  0.51064450  1
  S  S9  4  0.15959698  -0.06157949  0.35145072  1
  S  S10  4  0.16838160  0.32018632  0.63196931  1
  N  N11  4  -0.12569438  0.79183846  0.54671018  1
  N  N12  4  -0.11006713  -0.04351176  0.22597693  1
  N  N13  4  0.14262243  0.83016823  0.69436927  1
  N  N14  4  0.20771093  0.06920972  0.45909090  1
