###############################################################################################
#
# CIF file generated by modified CIFWriter class 
# in pymatgen (v2025.03.10) https://pymatgen.org/
#
###############################################################################################
data_PBE+MBD_tight_cfa3a60a5fa929b
_symmetry_space_group_name_H-M   P-4
_cell_length_a   9.82967454
_cell_length_b   9.82967454
_cell_length_c   12.36730508
_cell_angle_alpha   90.00000000
_cell_angle_beta   90.00000000
_cell_angle_gamma   90.00000000
_symmetry_Int_Tables_number   81
_chemical_formula_moiety   'C8 N4 S3'
_chemical_formula_sum   'C32 S12 N16'
_cell_volume   1194.95995362
_cell_formula_units_Z   4
loop_
 _symmetry_equiv_pos_site_id
 _symmetry_equiv_pos_as_xyz
  1  'x, y, z'
  2  'y, -x, -z'
  3  '-x, -y, z'
  4  '-y, x, -z'
loop_
 _atom_site_type_symbol
 _atom_site_label
 _atom_site_symmetry_multiplicity
 _atom_site_fract_x
 _atom_site_fract_y
 _atom_site_fract_z
 _atom_site_occupancy
  C  C0  4  0.12700073  0.67657567  0.68494925  1
  C  C1  4  0.13899480  0.60363064  0.50799590  1
  C  C2  4  0.17291183  0.52494362  0.41706751  1
  C  C3  4  0.17707808  0.47351757  0.96167900  1
  C  C4  4  0.18290815  0.57867896  0.61284053  1
  C  C5  4  0.19663381  0.51137640  0.85206390  1
  C  C6  4  0.24375313  0.41569749  0.78071802  1
  C  C7  4  0.25247134  0.27662491  0.80960458  1
  S  S8  4  0.03573693  0.74672292  0.50938064  1
  S  S9  4  0.16037492  0.68362347  0.82511915  1
  S  S10  4  0.29630117  0.44928905  0.64665692  1
  N  N11  4  0.04666663  0.76948085  0.64126636  1
  N  N12  4  0.16050398  0.74388072  0.17092505  1
  N  N13  4  0.16873643  0.44266900  1.05250409  1
  N  N14  4  0.20490651  0.45437145  0.34555180  1
