###############################################################################################
#
# CIF file generated by modified CIFWriter class 
# in pymatgen (v2025.03.10) https://pymatgen.org/
#
###############################################################################################
data_PBE+MBD_tight_cfb08b7c9f81590
_symmetry_space_group_name_H-M   Pna2_1
_cell_length_a   13.51142709
_cell_length_b   6.31890693
_cell_length_c   11.51038373
_cell_angle_alpha   90.00000000
_cell_angle_beta   90.00000000
_cell_angle_gamma   90.00000000
_symmetry_Int_Tables_number   33
_chemical_formula_moiety   'C8 N4 S3'
_chemical_formula_sum   'C32 S12 N16'
_cell_volume   982.72721441
_cell_formula_units_Z   4
loop_
 _symmetry_equiv_pos_site_id
 _symmetry_equiv_pos_as_xyz
  1  'x, y, z'
  2  '-x, -y, z+1/2'
  3  '-x+1/2, y+1/2, z+1/2'
  4  'x+1/2, -y+1/2, z'
loop_
 _atom_site_type_symbol
 _atom_site_label
 _atom_site_symmetry_multiplicity
 _atom_site_fract_x
 _atom_site_fract_y
 _atom_site_fract_z
 _atom_site_occupancy
  C  C0  4  0.01348607  0.62549018  0.56337520  1
  C  C1  4  0.06471351  -0.14547912  0.29337169  1
  C  C2  4  0.08964521  0.49154155  0.52101845  1
  C  C3  4  0.14861844  -0.04530408  0.34006553  1
  C  C4  4  0.15130536  0.14126810  0.40399975  1
  C  C5  4  0.18543232  0.53655741  0.55208705  1
  C  C6  4  0.20395718  0.71900291  0.62080114  1
  C  C7  4  0.24930472  0.68480327  0.93690295  1
  S  S8  4  0.04470476  0.28980538  0.43085196  1
  S  S9  4  0.20474501  0.90234252  1.01669857  1
  S  S10  4  0.23181987  0.35564985  0.82622797  1
  N  N11  4  -0.04782509  0.73820198  0.59865934  1
  N  N12  4  -0.00495816  -0.23196672  0.25685741  1
  N  N13  4  0.18168146  0.54785715  0.90254804  1
  N  N14  4  0.22073100  0.87087330  0.67496943  1
