###############################################################################################
#
# CIF file generated by modified CIFWriter class 
# in pymatgen (v2025.03.10) https://pymatgen.org/
#
###############################################################################################
data_PBE+MBD_tight_d322a733ead4efe
_symmetry_space_group_name_H-M   C2
_cell_length_a   9.99302627
_cell_length_b   10.66608414
_cell_length_c   11.42318112
_cell_angle_alpha   90.00000000
_cell_angle_beta   62.19704933
_cell_angle_gamma   90.00000000
_symmetry_Int_Tables_number   5
_chemical_formula_moiety   'C8 N4 S3'
_chemical_formula_sum   'C32 S12 N16'
_cell_volume   1076.99800537
_cell_formula_units_Z   4
loop_
 _symmetry_equiv_pos_site_id
 _symmetry_equiv_pos_as_xyz
  1  'x, y, z'
  2  '-x, y, -z'
  3  'x+1/2, y+1/2, z'
  4  '-x+1/2, y+1/2, -z'
loop_
 _atom_site_type_symbol
 _atom_site_label
 _atom_site_symmetry_multiplicity
 _atom_site_fract_x
 _atom_site_fract_y
 _atom_site_fract_z
 _atom_site_occupancy
  C  C0  4  -0.02882427  0.77595396  0.17048934  1
  C  C1  4  0.09240413  0.74984915  0.19812223  1
  C  C2  4  0.12486327  0.23920635  0.76296506  1
  C  C3  4  0.16164148  0.42445861  0.65092700  1
  C  C4  4  0.18180425  0.57830928  0.03897844  1
  C  C5  4  0.19216367  0.65434717  0.13623858  1
  C  C6  4  0.22047177  0.53756945  0.58336259  1
  C  C7  4  0.22824256  0.33833136  0.69885820  1
  S  S8  4  -0.01853045  0.37157733  0.68828697  1
  S  S9  4  0.08686285  0.84888493  0.32373288  1
  S  S10  4  0.16167321  0.10336480  0.83034883  1
  N  N11  4  -0.13388401  0.80049984  0.15607713  1
  N  N12  4  -0.00899096  0.24605188  0.76708790  1
  N  N13  4  0.17886520  0.50945792  -0.03908097  1
  N  N14  4  0.23623803  1.13289681  0.47168561  1
