###############################################################################################
#
# CIF file generated by modified CIFWriter class 
# in pymatgen (v2025.03.10) https://pymatgen.org/
#
###############################################################################################
data_PBE+MBD_tight_d3834b0993fab1f
_symmetry_space_group_name_H-M   Pca2_1
_cell_length_a   7.75185883
_cell_length_b   13.45003386
_cell_length_c   10.27712700
_cell_angle_alpha   90.00000000
_cell_angle_beta   90.00000000
_cell_angle_gamma   90.00000000
_symmetry_Int_Tables_number   29
_chemical_formula_moiety   'C8 N4 S3'
_chemical_formula_sum   'C32 S12 N16'
_cell_volume   1071.52166381
_cell_formula_units_Z   4
loop_
 _symmetry_equiv_pos_site_id
 _symmetry_equiv_pos_as_xyz
  1  'x, y, z'
  2  '-x, -y, z+1/2'
  3  '-x+1/2, y, z+1/2'
  4  'x+1/2, -y, z'
loop_
 _atom_site_type_symbol
 _atom_site_label
 _atom_site_symmetry_multiplicity
 _atom_site_fract_x
 _atom_site_fract_y
 _atom_site_fract_z
 _atom_site_occupancy
  C  C0  4  -0.07515186  0.65200710  0.79325097  1
  C  C1  4  -0.01843818  0.71518012  0.56625856  1
  C  C2  4  -0.01433672  0.64431196  0.66470199  1
  C  C3  4  -0.00568371  1.00434717  0.48286624  1
  C  C4  4  -0.00448268  0.89987373  0.46427447  1
  C  C5  4  0.05802138  0.67482133  0.45199385  1
  C  C6  4  0.07911666  0.86224704  0.35762231  1
  C  C7  4  0.18091606  0.92553641  0.27941959  1
  S  S8  4  -0.11762243  0.83130926  0.58206456  1
  S  S9  4  0.07618613  0.73810123  0.30247107  1
  S  S10  4  0.07705332  0.53582929  0.60380247  1
  N  N11  4  -0.12472253  0.65529334  0.90033189  1
  N  N12  4  -0.01263317  1.09064040  0.49219697  1
  N  N13  4  0.11500340  0.58249798  0.45829598  1
  N  N14  4  0.23082476  0.97595514  -0.28440761  1
