###############################################################################################
#
# CIF file generated by modified CIFWriter class 
# in pymatgen (v2025.03.10) https://pymatgen.org/
#
###############################################################################################
data_PBE+MBD_tight_d63099f0e6055c0
_symmetry_space_group_name_H-M   P2_1/c
_cell_length_a   11.47850731
_cell_length_b   12.31502070
_cell_length_c   7.31805667
_cell_angle_alpha   90.00000000
_cell_angle_beta   100.37033184
_cell_angle_gamma   90.00000000
_symmetry_Int_Tables_number   14
_chemical_formula_moiety   'C8 N4 S3'
_chemical_formula_sum   'C32 S12 N16'
_cell_volume   1017.56805848
_cell_formula_units_Z   4
loop_
 _symmetry_equiv_pos_site_id
 _symmetry_equiv_pos_as_xyz
  1  'x, y, z'
  2  '-x, -y, -z'
  3  '-x, y+1/2, -z+1/2'
  4  'x, -y+1/2, z+1/2'
loop_
 _atom_site_type_symbol
 _atom_site_label
 _atom_site_symmetry_multiplicity
 _atom_site_fract_x
 _atom_site_fract_y
 _atom_site_fract_z
 _atom_site_occupancy
  C  C0  4  -0.04647776  0.44759298  -0.26877691  1
  C  C1  4  0.04594789  0.39553388  -0.14888654  1
  C  C2  4  0.16116308  0.06745367  0.40651138  1
  C  C3  4  0.22720219  0.35609688  0.02943974  1
  C  C4  4  0.32395633  -0.08490456  0.52166414  1
  C  C5  4  0.33862021  -0.19790179  0.55265262  1
  C  C6  4  0.39092782  -0.01246751  0.63866665  1
  C  C7  4  0.48509643  -0.05359832  0.77328669  1
  S  S8  4  0.03360666  0.23074014  0.45088688  1
  S  S9  4  0.21604456  -0.05183889  0.32556737  1
  S  S10  4  0.37736712  0.37025642  0.13493480  1
  N  N11  4  -0.12315601  0.00817653  0.13259318  1
  N  N12  4  0.17043772  0.23223335  0.56626071  1
  N  N13  4  0.34703665  0.79128420  0.07910266  1
  N  N14  4  0.43411877  0.40990034  0.62596581  1
