###############################################################################################
#
# CIF file generated by modified CIFWriter class 
# in pymatgen (v2025.03.10) https://pymatgen.org/
#
###############################################################################################
data_PBE+MBD_tight_d8112ce8755e41b
_symmetry_space_group_name_H-M   Pna2_1
_cell_length_a   13.70503531
_cell_length_b   19.37116888
_cell_length_c   3.95536656
_cell_angle_alpha   90.00000000
_cell_angle_beta   90.00000000
_cell_angle_gamma   90.00000000
_symmetry_Int_Tables_number   33
_chemical_formula_moiety   'C8 N4 S3'
_chemical_formula_sum   'C32 S12 N16'
_cell_volume   1050.08081356
_cell_formula_units_Z   4
loop_
 _symmetry_equiv_pos_site_id
 _symmetry_equiv_pos_as_xyz
  1  'x, y, z'
  2  '-x, -y, z+1/2'
  3  '-x+1/2, y+1/2, z+1/2'
  4  'x+1/2, -y+1/2, z'
loop_
 _atom_site_type_symbol
 _atom_site_label
 _atom_site_symmetry_multiplicity
 _atom_site_fract_x
 _atom_site_fract_y
 _atom_site_fract_z
 _atom_site_occupancy
  C  C0  4  0.10796924  0.73305875  0.78848138  1
  C  C1  4  0.11949681  0.93057250  0.59850065  1
  C  C2  4  0.15335957  0.86832291  0.74538643  1
  C  C3  4  0.18166160  0.40094583  0.08991620  1
  C  C4  4  0.18913766  0.12666460  -0.00191946  1
  C  C5  4  0.20874624  0.71891545  0.74967816  1
  C  C6  4  0.22151702  0.65332257  0.61363925  1
  C  C7  4  0.24900759  0.35341401  0.23023175  1
  S  S8  4  0.06277700  0.81411445  0.92251621  1
  S  S9  4  0.10802274  0.61457574  0.57467061  1
  S  S10  4  0.19640825  0.27464844  0.36325876  1
  N  N11  4  0.04678650  0.68297175  0.70506984  1
  N  N12  4  0.09594691  0.98099828  0.45980932  1
  N  N13  4  0.11342298  0.11078919  -0.11148062  1
  N  N14  4  0.12434312  0.43923295  -0.02174177  1
