###############################################################################################
#
# CIF file generated by modified CIFWriter class 
# in pymatgen (v2025.03.10) https://pymatgen.org/
#
###############################################################################################
data_PBE+MBD_tight_d8dcb3594c662cd
_symmetry_space_group_name_H-M   P2_12_12_1
_cell_length_a   7.58582001
_cell_length_b   12.74719959
_cell_length_c   11.42661674
_cell_angle_alpha   90.00000000
_cell_angle_beta   90.00000000
_cell_angle_gamma   90.00000000
_symmetry_Int_Tables_number   19
_chemical_formula_moiety   'C8 N4 S3'
_chemical_formula_sum   'C32 S12 N16'
_cell_volume   1104.93054853
_cell_formula_units_Z   4
loop_
 _symmetry_equiv_pos_site_id
 _symmetry_equiv_pos_as_xyz
  1  'x, y, z'
  2  '-x, y+1/2, -z+1/2'
  3  'x+1/2, -y+1/2, -z'
  4  '-x+1/2, -y, z+1/2'
loop_
 _atom_site_type_symbol
 _atom_site_label
 _atom_site_symmetry_multiplicity
 _atom_site_fract_x
 _atom_site_fract_y
 _atom_site_fract_z
 _atom_site_occupancy
  C  C0  4  0.12056010  0.99036270  0.75093031  1
  C  C1  4  0.16046431  0.51065744  0.39564167  1
  C  C2  4  0.19468315  0.31522806  0.38785073  1
  C  C3  4  0.19658732  0.41180648  0.44411286  1
  C  C4  4  0.19719315  0.83146551  0.59150261  1
  C  C5  4  0.20762686  0.89808978  0.78880017  1
  C  C6  4  0.23769329  0.23529375  0.46964078  1
  C  C7  4  0.24587634  0.81975881  0.71064279  1
  S  S8  4  0.14102481  0.29754263  0.24047098  1
  S  S9  4  0.23763345  0.09968402  0.43887348  1
  S  S10  4  0.24971390  0.60696747  1.09011514  1
  N  N11  4  0.05150472  1.06778639  0.72144193  1
  N  N12  4  0.12991489  0.59263738  0.35507049  1
  N  N13  4  0.15861411  0.84248026  0.49345605  1
  N  N14  4  0.22738862  0.73487856  1.07790968  1
