###############################################################################################
#
# CIF file generated by modified CIFWriter class 
# in pymatgen (v2025.03.10) https://pymatgen.org/
#
###############################################################################################
data_PBE+MBD_tight_deb749770cbe9d2
_symmetry_space_group_name_H-M   Pccm
_cell_length_a   9.93593823
_cell_length_b   15.21351491
_cell_length_c   6.97470993
_cell_angle_alpha   90.00000000
_cell_angle_beta   90.00000000
_cell_angle_gamma   90.00000000
_symmetry_Int_Tables_number   49
_chemical_formula_moiety   'C8 N4 S3'
_chemical_formula_sum   'C32 S12 N16'
_cell_volume   1054.30095011
_cell_formula_units_Z   4
loop_
 _symmetry_equiv_pos_site_id
 _symmetry_equiv_pos_as_xyz
  1  'x, y, z'
  2  '-x, -y, -z+640/793'
  3  '-x, -y, z'
  4  'x, y, -z+640/793'
  5  'x, -y, -z+300/977'
  6  '-x, y, z+1/2'
  7  '-x, y, -z+300/977'
  8  'x, -y, z+1/2'
loop_
 _atom_site_type_symbol
 _atom_site_label
 _atom_site_symmetry_multiplicity
 _atom_site_fract_x
 _atom_site_fract_y
 _atom_site_fract_z
 _atom_site_occupancy
  C  C0  4  -0.10090962  0.11740772  0.90353085  1
  C  C1  4  -0.05887866  0.20566674  0.90353085  1
  C  C2  4  0.06824233  0.33209184  0.90353085  1
  C  C3  4  0.07189290  0.23823973  0.90353085  1
  C  C4  4  0.34275943  0.33419357  0.90353085  1
  C  C5  4  0.34484168  0.24387495  0.90353085  1
  C  C6  4  0.46880179  0.37801144  0.90353085  1
  C  C7  4  0.47244770  0.20205278  0.90353085  1
  S  S8  4  -0.17144281  0.29312573  0.90353085  1
  S  S9  4  0.20511156  0.40631794  0.90353085  1
  S  S10  4  0.21212445  0.16818456  0.90353085  1
  N  N11  4  -0.13755128  0.04465168  0.90353085  1
  N  N12  4  -0.05212989  0.36870413  0.90353085  1
  N  N13  4  0.42071278  0.17030175  0.40353085  1
  N  N14  4  0.42605690  0.41203865  0.40353085  1
