###############################################################################################
#
# CIF file generated by modified CIFWriter class 
# in pymatgen (v2025.03.10) https://pymatgen.org/
#
###############################################################################################
data_PBE+MBD_tight_e0495488a0a8c96
_symmetry_space_group_name_H-M   C2
_cell_length_a   12.95760621
_cell_length_b   9.47083422
_cell_length_c   9.50800392
_cell_angle_alpha   90.00000000
_cell_angle_beta   81.29248925
_cell_angle_gamma   90.00000000
_symmetry_Int_Tables_number   5
_chemical_formula_moiety   'C8 N4 S3'
_chemical_formula_sum   'C32 S12 N16'
_cell_volume   1153.36730617
_cell_formula_units_Z   4
loop_
 _symmetry_equiv_pos_site_id
 _symmetry_equiv_pos_as_xyz
  1  'x, y, z'
  2  '-x, y, -z'
  3  'x+1/2, y+1/2, z'
  4  '-x+1/2, y+1/2, -z'
loop_
 _atom_site_type_symbol
 _atom_site_label
 _atom_site_symmetry_multiplicity
 _atom_site_fract_x
 _atom_site_fract_y
 _atom_site_fract_z
 _atom_site_occupancy
  C  C0  4  -0.14466028  0.35778822  0.12897313  1
  C  C1  4  -0.06622110  0.09672135  0.19703381  1
  C  C2  4  -0.04796663  0.34991467  0.18097526  1
  C  C3  4  -0.00877073  0.22161144  0.21403325  1
  C  C4  4  0.09621031  0.48542962  0.31125539  1
  C  C5  4  0.11740993  0.73714061  0.38009266  1
  C  C6  4  0.13602797  0.35279704  0.34720753  1
  C  C7  4  0.13695574  0.59170467  0.38732906  1
  S  S8  4  0.01064749  0.51734898  0.18892552  1
  S  S9  4  0.10983259  0.18748600  0.27569990  1
  S  S10  4  0.22091802  0.51723000  0.49236875  1
  N  N11  4  -0.22283851  0.36733405  0.08270136  1
  N  N12  4  -0.11269914  -0.00665463  0.18373289  1
  N  N13  4  0.10025917  0.85753230  0.37334334  1
  N  N14  4  0.20015659  0.35398676  0.44297205  1
