###############################################################################################
#
# CIF file generated by modified CIFWriter class 
# in pymatgen (v2025.03.10) https://pymatgen.org/
#
###############################################################################################
data_PBE+MBD_tight_e23175197bfb2f6
_symmetry_space_group_name_H-M   P2_1/c
_cell_length_a   12.05673862
_cell_length_b   6.81566566
_cell_length_c   14.44720469
_cell_angle_alpha   90.00000000
_cell_angle_beta   122.01341589
_cell_angle_gamma   90.00000000
_symmetry_Int_Tables_number   14
_chemical_formula_moiety   'C8 N4 S3'
_chemical_formula_sum   'C32 S12 N16'
_cell_volume   1006.65087085
_cell_formula_units_Z   4
loop_
 _symmetry_equiv_pos_site_id
 _symmetry_equiv_pos_as_xyz
  1  'x, y, z'
  2  '-x, -y, -z'
  3  '-x, y+1/2, -z+1/2'
  4  'x, -y+1/2, z+1/2'
loop_
 _atom_site_type_symbol
 _atom_site_label
 _atom_site_symmetry_multiplicity
 _atom_site_fract_x
 _atom_site_fract_y
 _atom_site_fract_z
 _atom_site_occupancy
  C  C0  4  0.02492649  0.45053403  0.39104407  1
  C  C1  4  0.09991171  0.60937422  0.39247057  1
  C  C2  4  0.20099555  0.60541317  0.37302386  1
  C  C3  4  0.24633735  0.79902558  0.37666304  1
  C  C4  4  0.28831624  0.35435724  0.17760401  1
  C  C5  4  0.30624962  0.48955684  0.25889278  1
  C  C6  4  0.35174458  0.67491939  0.26258145  1
  C  C7  4  0.38526634  0.73344927  0.18648558  1
  S  S8  4  0.07577711  0.85048665  0.41640858  1
  S  S9  4  0.26556889  0.39400384  0.35073939  1
  S  S10  4  0.37667672  0.85628287  0.35881133  1
  N  N11  4  -0.03963431  1.18068888  0.88697070  1
  N  N12  4  0.18764135  0.94163099  0.39640385  1
  N  N13  4  0.27321675  0.23916800  0.11210189  1
  N  N14  4  0.41735972  0.78166701  0.12661161  1
