###############################################################################################
#
# CIF file generated by modified CIFWriter class 
# in pymatgen (v2025.03.10) https://pymatgen.org/
#
###############################################################################################
data_PBE+MBD_tight_e7c91890eff64ee
_symmetry_space_group_name_H-M   P-4
_cell_length_a   13.18536898
_cell_length_b   13.18536898
_cell_length_c   6.72856427
_cell_angle_alpha   90.00000000
_cell_angle_beta   90.00000000
_cell_angle_gamma   90.00000000
_symmetry_Int_Tables_number   81
_chemical_formula_moiety   'C8 N4 S3'
_chemical_formula_sum   'C32 S12 N16'
_cell_volume   1169.78751169
_cell_formula_units_Z   4
loop_
 _symmetry_equiv_pos_site_id
 _symmetry_equiv_pos_as_xyz
  1  'x, y, z'
  2  'y, -x, -z'
  3  '-x, -y, z'
  4  '-y, x, -z'
loop_
 _atom_site_type_symbol
 _atom_site_label
 _atom_site_symmetry_multiplicity
 _atom_site_fract_x
 _atom_site_fract_y
 _atom_site_fract_z
 _atom_site_occupancy
  C  C0  4  0.04355121  0.33992931  0.25937573  1
  C  C1  4  0.08812237  0.31508853  0.44449331  1
  C  C2  4  0.11057572  0.13751145  0.35449271  1
  C  C3  4  0.11966263  0.21923945  0.48981982  1
  C  C4  4  0.22588854  0.39227546  0.69286826  1
  C  C5  4  0.26052210  0.29229015  0.73611210  1
  C  C6  4  0.30177134  0.56783385  0.70742897  1
  C  C7  4  0.30266045  0.46184581  0.72790158  1
  S  S8  4  0.10396903  0.41953168  0.60761996  1
  S  S9  4  0.18070240  0.18548841  0.71479038  1
  S  S10  4  0.39523595  0.59138528  0.19135402  1
  N  N11  4  0.00642046  0.36338904  0.10877304  1
  N  N12  4  0.06695628  0.89364675  0.74986200  1
  N  N13  4  0.28267554  0.64452213  0.20420316  1
  N  N14  4  0.30441313  0.65605737  0.69508599  1
