###############################################################################################
#
# CIF file generated by modified CIFWriter class 
# in pymatgen (v2025.03.10) https://pymatgen.org/
#
###############################################################################################
data_PBE+MBD_tight_e7da77d00c70d26
_symmetry_space_group_name_H-M   C2
_cell_length_a   11.20908737
_cell_length_b   8.46077153
_cell_length_c   12.16254628
_cell_angle_alpha   90.00000000
_cell_angle_beta   110.12796884
_cell_angle_gamma   90.00000000
_symmetry_Int_Tables_number   5
_chemical_formula_moiety   'C8 N4 S3'
_chemical_formula_sum   'C32 S12 N16'
_cell_volume   1083.01948468
_cell_formula_units_Z   4
loop_
 _symmetry_equiv_pos_site_id
 _symmetry_equiv_pos_as_xyz
  1  'x, y, z'
  2  '-x, y, -z'
  3  'x+1/2, y+1/2, z'
  4  '-x+1/2, y+1/2, -z'
loop_
 _atom_site_type_symbol
 _atom_site_label
 _atom_site_symmetry_multiplicity
 _atom_site_fract_x
 _atom_site_fract_y
 _atom_site_fract_z
 _atom_site_occupancy
  C  C0  4  -0.04805897  0.23205640  0.36052406  1
  C  C1  4  0.06739029  0.24284122  0.33819133  1
  C  C2  4  0.08566336  -0.04097856  0.34818672  1
  C  C3  4  0.13109091  0.10867861  0.32771243  1
  C  C4  4  0.14045788  0.68220308  0.12705397  1
  C  C5  4  0.18379796  0.41350977  0.21934758  1
  C  C6  4  0.18631737  0.52648193  0.13733722  1
  C  C7  4  0.24570872  0.27392286  0.20252193  1
  S  S8  4  0.11755708  0.43920608  0.32912830  1
  S  S9  4  0.22866061  0.60573922  0.70638745  1
  S  S10  4  0.23454927  0.94865158  0.95057492  1
  N  N11  4  -0.14346655  0.22646004  0.37905086  1
  N  N12  4  0.04915075  -0.16276040  0.36844157  1
  N  N13  4  0.10393413  0.81219326  0.11853801  1
  N  N14  4  0.20990600  0.77458012  0.88512675  1
