###############################################################################################
#
# CIF file generated by modified CIFWriter class 
# in pymatgen (v2025.03.10) https://pymatgen.org/
#
###############################################################################################
data_PBE+MBD_tight_e857a3185c5dba9
_symmetry_space_group_name_H-M   P2_1/c
_cell_length_a   15.87103941
_cell_length_b   6.87472080
_cell_length_c   12.17669019
_cell_angle_alpha   90.00000000
_cell_angle_beta   51.81354507
_cell_angle_gamma   90.00000000
_symmetry_Int_Tables_number   14
_chemical_formula_moiety   'C8 N4 S3'
_chemical_formula_sum   'C32 S12 N16'
_cell_volume   1044.27271770
_cell_formula_units_Z   4
loop_
 _symmetry_equiv_pos_site_id
 _symmetry_equiv_pos_as_xyz
  1  'x, y, z'
  2  '-x, -y, -z'
  3  '-x, y+1/2, -z+1/2'
  4  'x, -y+1/2, z+1/2'
loop_
 _atom_site_type_symbol
 _atom_site_label
 _atom_site_symmetry_multiplicity
 _atom_site_fract_x
 _atom_site_fract_y
 _atom_site_fract_z
 _atom_site_occupancy
  C  C0  4  0.04249905  1.24641692  0.93111833  1
  C  C1  4  0.15273909  0.28116308  0.32446027  1
  C  C2  4  0.17716881  0.91576243  0.09141930  1
  C  C3  4  0.20134387  1.09771002  0.70866322  1
  C  C4  4  0.22599958  0.76516963  0.57544855  1
  C  C5  4  0.31437274  0.38327349  0.12427901  1
  C  C6  4  0.33540856  0.71908505  -0.00601534  1
  C  C7  4  0.40050973  0.61436606  0.42503419  1
  S  S8  4  0.13368234  0.95706330  0.66579552  1
  S  S9  4  0.25241179  1.34578927  0.81320827  1
  S  S10  4  0.40610008  0.99811930  0.46255826  1
  N  N11  4  -0.04908185  0.22918669  0.51857194  1
  N  N12  4  0.13504989  0.43704419  0.60514408  1
  N  N13  4  0.35201596  0.26041531  0.16789376  1
  N  N14  4  0.45382181  1.02244922  -0.13296679  1
