###############################################################################################
#
# CIF file generated by modified CIFWriter class 
# in pymatgen (v2025.03.10) https://pymatgen.org/
#
###############################################################################################
data_PBE+MBD_tight_eba51e83df5f0f2
_symmetry_space_group_name_H-M   Pca2_1
_cell_length_a   12.06648779
_cell_length_b   9.73528388
_cell_length_c   9.18610123
_cell_angle_alpha   90.00000000
_cell_angle_beta   90.00000000
_cell_angle_gamma   90.00000000
_symmetry_Int_Tables_number   29
_chemical_formula_moiety   'C8 N4 S3'
_chemical_formula_sum   'C32 S12 N16'
_cell_volume   1079.09759646
_cell_formula_units_Z   4
loop_
 _symmetry_equiv_pos_site_id
 _symmetry_equiv_pos_as_xyz
  1  'x, y, z'
  2  '-x, -y, z+1/2'
  3  '-x+1/2, y, z+1/2'
  4  'x+1/2, -y, z'
loop_
 _atom_site_type_symbol
 _atom_site_label
 _atom_site_symmetry_multiplicity
 _atom_site_fract_x
 _atom_site_fract_y
 _atom_site_fract_z
 _atom_site_occupancy
  C  C0  4  -0.07493562  0.82288044  0.48536978  1
  C  C1  4  -0.02572569  0.83022424  0.72641194  1
  C  C2  4  0.01438134  0.81598833  0.58557728  1
  C  C3  4  0.03255481  0.58359295  0.18528200  1
  C  C4  4  0.03339931  0.83031964  0.85799115  1
  C  C5  4  0.04946535  0.68549651  0.29268078  1
  C  C6  4  0.13591825  0.67935394  0.38838032  1
  C  C7  4  0.21634618  0.57400892  0.37725687  1
  S  S8  4  -0.16825429  0.85088427  0.71793855  1
  S  S9  4  -0.05308229  0.81478244  0.29580597  1
  S  S10  4  0.15335498  0.79534513  0.53515229  1
  N  N11  4  -0.17539988  0.83916437  0.53975813  1
  N  N12  4  0.01473005  0.50133663  0.09615588  1
  N  N13  4  0.08101949  0.83266956  0.96851846  1
  N  N14  4  0.21673267  0.48831224  0.86518421  1
