###############################################################################################
#
# CIF file generated by modified CIFWriter class 
# in pymatgen (v2025.03.10) https://pymatgen.org/
#
###############################################################################################
data_PBE+MBD_tight_ebe6a13656232ff
_symmetry_space_group_name_H-M   P2_1/c
_cell_length_a   13.45507033
_cell_length_b   9.85931954
_cell_length_c   7.71258399
_cell_angle_alpha   90.00000000
_cell_angle_beta   81.76693653
_cell_angle_gamma   90.00000000
_symmetry_Int_Tables_number   14
_chemical_formula_moiety   'C8 N4 S3'
_chemical_formula_sum   'C32 S12 N16'
_cell_volume   1012.59004420
_cell_formula_units_Z   4
loop_
 _symmetry_equiv_pos_site_id
 _symmetry_equiv_pos_as_xyz
  1  'x, y, z'
  2  '-x, -y, -z'
  3  '-x, y+1/2, -z+1/2'
  4  'x, -y+1/2, z+1/2'
loop_
 _atom_site_type_symbol
 _atom_site_label
 _atom_site_symmetry_multiplicity
 _atom_site_fract_x
 _atom_site_fract_y
 _atom_site_fract_z
 _atom_site_occupancy
  C  C0  4  0.11927918  0.96576764  1.06523735  1
  C  C1  4  0.16595305  0.65440501  0.49264097  1
  C  C2  4  0.16650129  0.92887453  0.50165054  1
  C  C3  4  0.26686334  0.84801228  0.93026601  1
  C  C4  4  0.27064027  0.92572071  0.43578502  1
  C  C5  4  0.31178555  1.05414077  0.44879482  1
  C  C6  4  0.31873562  0.52746140  0.43991185  1
  C  C7  4  0.41220823  0.40866801  0.89396584  1
  S  S8  4  0.08233333  0.79191076  0.49577014  1
  S  S9  4  0.21778845  0.33605122  1.03971454  1
  S  S10  4  0.34166477  0.78842990  0.34190367  1
  N  N11  4  0.08023687  1.06420047  1.12498269  1
  N  N12  4  0.12969843  0.45365509  1.06316228  1
  N  N13  4  0.35645953  1.07804173  0.95155067  1
  N  N14  4  0.49630604  1.11686569  0.34765070  1
