###############################################################################################
#
# CIF file generated by modified CIFWriter class 
# in pymatgen (v2025.03.10) https://pymatgen.org/
#
###############################################################################################
data_PBE+MBD_tight_edebfc8f0f2c2c3
_symmetry_space_group_name_H-M   P4_3
_cell_length_a   8.54716550
_cell_length_b   8.54716550
_cell_length_c   15.97042336
_cell_angle_alpha   90.00000000
_cell_angle_beta   90.00000000
_cell_angle_gamma   90.00000000
_symmetry_Int_Tables_number   78
_chemical_formula_moiety   'C8 N4 S3'
_chemical_formula_sum   'C32 S12 N16'
_cell_volume   1166.70391590
_cell_formula_units_Z   4
loop_
 _symmetry_equiv_pos_site_id
 _symmetry_equiv_pos_as_xyz
  1  'x, y, z'
  2  '-y, x, z+3/4'
  3  '-x, -y, z+1/2'
  4  'y, -x, z+1/4'
loop_
 _atom_site_type_symbol
 _atom_site_label
 _atom_site_symmetry_multiplicity
 _atom_site_fract_x
 _atom_site_fract_y
 _atom_site_fract_z
 _atom_site_occupancy
  C  C0  4  -0.08393272  0.21991912  0.56136678  1
  C  C1  4  -0.03343069  0.35526089  0.51782233  1
  C  C2  4  0.03844062  0.31393304  0.23245434  1
  C  C3  4  0.05164091  0.46047262  0.36684692  1
  C  C4  4  0.06538847  0.46329177  0.55276433  1
  C  C5  4  0.10304869  0.42646262  0.28653207  1
  C  C6  4  0.14024997  0.43773375  0.63053796  1
  C  C7  4  0.14693467  0.57766643  0.40320789  1
  S  S8  4  -0.11015408  0.37528430  0.41565760  1
  S  S9  4  0.11020300  0.64595299  0.50562492  1
  S  S10  4  0.26046846  0.54754863  0.26416534  1
  N  N11  4  -0.01962495  0.22033005  0.18928657  1
  N  N12  4  0.11167184  1.13453774  0.84665102  1
  N  N13  4  0.20600819  0.42192052  0.69404841  1
  N  N14  4  0.26281700  0.63266330  0.35692083  1
