###############################################################################################
#
# CIF file generated by modified CIFWriter class 
# in pymatgen (v2025.03.10) https://pymatgen.org/
#
###############################################################################################
data_PBE+MBD_tight_ef5fc74475ca89f
_symmetry_space_group_name_H-M   Pna2_1
_cell_length_a   12.17417611
_cell_length_b   7.18915409
_cell_length_c   13.05280016
_cell_angle_alpha   90.00000000
_cell_angle_beta   90.00000000
_cell_angle_gamma   90.00000000
_symmetry_Int_Tables_number   33
_chemical_formula_moiety   'C8 N4 S3'
_chemical_formula_sum   'C32 S12 N16'
_cell_volume   1142.40754063
_cell_formula_units_Z   4
loop_
 _symmetry_equiv_pos_site_id
 _symmetry_equiv_pos_as_xyz
  1  'x, y, z'
  2  '-x, -y, z+1/2'
  3  '-x+1/2, y+1/2, z+1/2'
  4  'x+1/2, -y+1/2, z'
loop_
 _atom_site_type_symbol
 _atom_site_label
 _atom_site_symmetry_multiplicity
 _atom_site_fract_x
 _atom_site_fract_y
 _atom_site_fract_z
 _atom_site_occupancy
  C  C0  4  0.03822430  0.53215599  0.70567621  1
  C  C1  4  0.04221434  0.10914462  -0.13509748  1
  C  C2  4  0.09995484  0.20742333  -0.05902561  1
  C  C3  4  0.11620902  0.25317033  0.57084924  1
  C  C4  4  0.14256596  0.54737072  0.65827111  1
  C  C5  4  0.16345938  0.13611894  0.02018467  1
  C  C6  4  0.18236907  0.40803067  0.59681387  1
  C  C7  4  0.20756658  0.28384904  0.07961560  1
  S  S8  4  0.10144627  0.44879540  -0.05013248  1
  S  S9  4  0.18323501  -0.10031596  0.04577080  1
  S  S10  4  0.21346575  0.75234723  0.69146679  1
  N  N11  4  -0.04449420  0.52053479  0.75046139  1
  N  N12  4  -0.00457123  0.02855934  -0.19922176  1
  N  N13  4  0.06269177  0.12565292  0.54729603  1
  N  N14  4  0.18354934  0.45452727  0.04999893  1
