###############################################################################################
#
# CIF file generated by modified CIFWriter class 
# in pymatgen (v2025.03.10) https://pymatgen.org/
#
###############################################################################################
data_PBE+MBD_tight_f0c7819e8fbe61a
_symmetry_space_group_name_H-M   P4_1
_cell_length_a   9.33442127
_cell_length_b   9.33442127
_cell_length_c   12.75605374
_cell_angle_alpha   90.00000000
_cell_angle_beta   90.00000000
_cell_angle_gamma   90.00000000
_symmetry_Int_Tables_number   76
_chemical_formula_moiety   'C8 N4 S3'
_chemical_formula_sum   'C32 S12 N16'
_cell_volume   1111.45308031
_cell_formula_units_Z   4
loop_
 _symmetry_equiv_pos_site_id
 _symmetry_equiv_pos_as_xyz
  1  'x, y, z'
  2  '-y, x, z+1/4'
  3  '-x, -y, z+1/2'
  4  'y, -x, z+3/4'
loop_
 _atom_site_type_symbol
 _atom_site_label
 _atom_site_symmetry_multiplicity
 _atom_site_fract_x
 _atom_site_fract_y
 _atom_site_fract_z
 _atom_site_occupancy
  C  C0  4  -0.04284050  0.63660560  0.30014772  1
  C  C1  4  -0.02834922  0.78428136  0.15690076  1
  C  C2  4  -0.00353277  0.54359463  0.38181218  1
  C  C3  4  0.04658448  0.68563601  0.22073182  1
  C  C4  4  0.18413670  0.76498550  0.01181969  1
  C  C5  4  0.21684275  0.78314296  -0.09587961  1
  C  C6  4  0.25105036  0.66320798  0.07152117  1
  C  C7  4  0.34828418  0.56589303  0.02479686  1
  S  S8  4  -0.20909497  0.71742448  0.28659910  1
  S  S9  4  0.05246900  0.88531930  0.05626329  1
  S  S10  4  0.22697139  0.63883270  0.20766034  1
  N  N11  4  -0.16390025  0.80862184  0.18109239  1
  N  N12  4  0.03355627  0.46678086  0.44865984  1
  N  N13  4  0.19357131  0.24154482  0.06608380  1
  N  N14  4  0.42807931  0.48490435  -0.01320575  1
