###############################################################################################
#
# CIF file generated by modified CIFWriter class 
# in pymatgen (v2025.03.10) https://pymatgen.org/
#
###############################################################################################
data_PBE+MBD_tight_f4dc2a839c6b700
_symmetry_space_group_name_H-M   P2/c
_cell_length_a   12.72545243
_cell_length_b   7.29767589
_cell_length_c   13.14213081
_cell_angle_alpha   90.00000000
_cell_angle_beta   81.45508239
_cell_angle_gamma   90.00000000
_symmetry_Int_Tables_number   13
_chemical_formula_moiety   'C8 N4 S3'
_chemical_formula_sum   'C32 S12 N16'
_cell_volume   1206.91261396
_cell_formula_units_Z   4
loop_
 _symmetry_equiv_pos_site_id
 _symmetry_equiv_pos_as_xyz
  1  'x, y, z'
  2  '-x, -y, -z'
  3  '-x, y, -z+1/2'
  4  'x, -y, z+1/2'
loop_
 _atom_site_type_symbol
 _atom_site_label
 _atom_site_symmetry_multiplicity
 _atom_site_fract_x
 _atom_site_fract_y
 _atom_site_fract_z
 _atom_site_occupancy
  C  C0  4  0.11041584  1.01339518  0.41629216  1
  C  C1  4  0.17618638  0.09784139  0.96868349  1
  C  C2  4  0.17809852  1.13021366  0.60334933  1
  C  C3  4  0.20806001  0.04180688  1.05837932  1
  C  C4  4  0.35204477  0.70389838  0.42239981  1
  C  C5  4  0.38541692  0.76250716  0.51557867  1
  C  C6  4  0.43845965  0.80200108  -0.07842205  1
  C  C7  4  0.49571431  0.75586798  0.50540617  1
  S  S8  4  0.21742410  0.69548412  0.40455032  1
  S  S9  4  0.29744695  0.83343091  0.62369845  1
  S  S10  4  0.45460845  0.67897391  0.11756962  1
  N  N11  4  0.05653004  1.10220399  0.37125879  1
  N  N12  4  0.15812918  -0.27301669  1.14139404  1
  N  N13  4  0.38188970  0.15944139  0.36270189  1
  N  N14  4  0.42743957  0.34237950  0.84648335  1
