###############################################################################################
#
# CIF file generated by modified CIFWriter class 
# in pymatgen (v2025.03.10) https://pymatgen.org/
#
###############################################################################################
data_PBE+MBD_tight_f6095a83550ae2e
_symmetry_space_group_name_H-M   P2_12_12
_cell_length_a   9.33465646
_cell_length_b   13.10270816
_cell_length_c   9.43664693
_cell_angle_alpha   90.00000000
_cell_angle_beta   90.00000000
_cell_angle_gamma   90.00000000
_symmetry_Int_Tables_number   18
_chemical_formula_moiety   'C8 N4 S3'
_chemical_formula_sum   'C32 S12 N16'
_cell_volume   1154.18948525
_cell_formula_units_Z   4
loop_
 _symmetry_equiv_pos_site_id
 _symmetry_equiv_pos_as_xyz
  1  'x, y, z'
  2  '-x, -y, z'
  3  'x+1/2, -y+1/2, -z'
  4  '-x+1/2, y+1/2, -z'
loop_
 _atom_site_type_symbol
 _atom_site_label
 _atom_site_symmetry_multiplicity
 _atom_site_fract_x
 _atom_site_fract_y
 _atom_site_fract_z
 _atom_site_occupancy
  C  C0  4  0.06564851  0.22325976  0.43419057  1
  C  C1  4  0.11386010  0.32590404  0.44343280  1
  C  C2  4  0.12782024  0.35415744  0.58464958  1
  C  C3  4  0.15100773  0.21804532  0.16221753  1
  C  C4  4  0.16302706  0.45159534  0.63578250  1
  C  C5  4  0.19456735  0.85323324  0.92124779  1
  C  C6  4  0.19922166  0.31656456  0.17282079  1
  C  C7  4  0.21090988  0.15411901  0.05607850  1
  S  S8  4  0.02140697  0.16175044  0.27362069  1
  S  S9  4  0.08026741  0.25103861  0.68974084  1
  S  S10  4  0.14394210  0.40724184  0.29956924  1
  N  N11  4  0.04575962  0.17452304  0.55548077  1
  N  N12  4  0.10695392  0.88395739  0.99818620  1
  N  N13  4  0.18678537  0.53441801  0.67439405  1
  N  N14  4  0.23657315  0.60510029  1.03301434  1
