###############################################################################################
#
# CIF file generated by modified CIFWriter class 
# in pymatgen (v2025.03.10) https://pymatgen.org/
#
###############################################################################################
data_PBE+MBD_tight_f73754dff4caa5d
_symmetry_space_group_name_H-M   P-4
_cell_length_a   12.37681415
_cell_length_b   12.37681415
_cell_length_c   6.93157475
_cell_angle_alpha   90.00000000
_cell_angle_beta   90.00000000
_cell_angle_gamma   90.00000000
_symmetry_Int_Tables_number   81
_chemical_formula_moiety   'C8 N4 S3'
_chemical_formula_sum   'C32 S12 N16'
_cell_volume   1061.81694260
_cell_formula_units_Z   4
loop_
 _symmetry_equiv_pos_site_id
 _symmetry_equiv_pos_as_xyz
  1  'x, y, z'
  2  'y, -x, -z'
  3  '-x, -y, z'
  4  '-y, x, -z'
loop_
 _atom_site_type_symbol
 _atom_site_label
 _atom_site_symmetry_multiplicity
 _atom_site_fract_x
 _atom_site_fract_y
 _atom_site_fract_z
 _atom_site_occupancy
  C  C0  4  0.11195931  0.64130308  0.43029062  1
  C  C1  4  0.13636692  0.70388068  0.26519328  1
  C  C2  4  0.13742668  0.15223338  0.53408440  1
  C  C3  4  0.15879741  0.81162398  0.28349436  1
  C  C4  4  0.19174566  0.26945341  1.05049276  1
  C  C5  4  0.24615799  0.69630686  -0.06676045  1
  C  C6  4  0.31989972  0.64776432  -0.19078661  1
  C  C7  4  0.33224786  0.53795447  -0.23800478  1
  S  S8  4  0.10133485  0.19345048  0.90740516  1
  S  S9  4  0.13595775  0.63307072  0.04361740  1
  S  S10  4  0.25290834  0.40518102  1.28003976  1
  N  N11  4  0.09345492  0.14413595  0.38607477  1
  N  N12  4  0.09446854  0.58982332  0.56789541  1
  N  N13  4  0.15460525  0.35163664  1.15233336  1
  N  N14  4  0.34709554  0.44730931  -0.27617636  1
