###############################################################################################
#
# CIF file generated by modified CIFWriter class 
# in pymatgen (v2025.03.10) https://pymatgen.org/
#
###############################################################################################
data_PBE+MBD_tight_ff9187c49a87728
_symmetry_space_group_name_H-M   P4_2
_cell_length_a   14.35032709
_cell_length_b   14.35032709
_cell_length_c   5.75788770
_cell_angle_alpha   90.00000000
_cell_angle_beta   90.00000000
_cell_angle_gamma   90.00000000
_symmetry_Int_Tables_number   77
_chemical_formula_moiety   'C8 N4 S3'
_chemical_formula_sum   'C32 S12 N16'
_cell_volume   1185.73268341
_cell_formula_units_Z   4
loop_
 _symmetry_equiv_pos_site_id
 _symmetry_equiv_pos_as_xyz
  1  'x, y, z'
  2  '-y, x, z+1/2'
  3  '-x, -y, z'
  4  'y, -x, z+1/2'
loop_
 _atom_site_type_symbol
 _atom_site_label
 _atom_site_symmetry_multiplicity
 _atom_site_fract_x
 _atom_site_fract_y
 _atom_site_fract_z
 _atom_site_occupancy
  C  C0  4  0.11056567  0.12669074  1.11106944  1
  C  C1  4  0.11386250  0.79460948  0.55885682  1
  C  C2  4  0.12567190  0.65047436  0.38519653  1
  C  C3  4  0.15829994  0.74377015  0.38619293  1
  C  C4  4  0.28316067  0.41174739  0.69041914  1
  C  C5  4  0.28721870  0.59901962  0.18371102  1
  C  C6  4  0.31078637  0.31730909  0.68501657  1
  C  C7  4  0.34834873  0.52162009  0.18486138  1
  S  S8  4  0.03499537  0.72136436  0.69527137  1
  S  S9  4  0.16779423  0.56727517  0.18488763  1
  S  S10  4  0.21416537  0.23993473  0.68725784  1
  N  N11  4  0.03177461  0.13920807  1.15005017  1
  N  N12  4  0.06098668  0.62889492  0.53949836  1
  N  N13  4  0.25270411  0.48709087  0.69508966  1
  N  N14  4  0.39304169  0.45380590  0.18474042  1
