###############################################################################################
#
# CIF file generated by modified CIFWriter class 
# in pymatgen (v2025.03.10) https://pymatgen.org/
#
###############################################################################################
data_PBE+MBD_tight_ff992a279010333
_symmetry_space_group_name_H-M   P2_1/c
_cell_length_a   10.31255001
_cell_length_b   6.75961045
_cell_length_c   14.47073359
_cell_angle_alpha   90.00000000
_cell_angle_beta   94.48145204
_cell_angle_gamma   90.00000000
_symmetry_Int_Tables_number   14
_chemical_formula_moiety   'C8 N4 S3'
_chemical_formula_sum   'C32 S12 N16'
_cell_volume   1005.65374151
_cell_formula_units_Z   4
loop_
 _symmetry_equiv_pos_site_id
 _symmetry_equiv_pos_as_xyz
  1  'x, y, z'
  2  '-x, -y, -z'
  3  '-x, y+1/2, -z+1/2'
  4  'x, -y+1/2, z+1/2'
loop_
 _atom_site_type_symbol
 _atom_site_label
 _atom_site_symmetry_multiplicity
 _atom_site_fract_x
 _atom_site_fract_y
 _atom_site_fract_z
 _atom_site_occupancy
  C  C0  4  0.02530543  1.05710949  0.62306193  1
  C  C1  4  0.10090323  0.60278127  0.15799332  1
  C  C2  4  0.20238977  0.60008752  0.22694653  1
  C  C3  4  0.24822567  0.70454727  0.74418924  1
  C  C4  4  0.28914061  1.14256748  0.96765497  1
  C  C5  4  0.30805314  1.01026917  0.89403734  1
  C  C6  4  0.35382717  0.82273463  0.91091600  1
  C  C7  4  0.38691590  0.74153960  0.50285674  1
  S  S8  4  0.07665682  0.84508267  0.12093255  1
  S  S9  4  0.26700097  0.38879482  0.28295605  1
  S  S10  4  0.37915354  0.64440574  0.82522636  1
  N  N11  4  -0.03997977  1.18847815  0.59531619  1
  N  N12  4  0.18937856  0.93827337  0.19487491  1
  N  N13  4  0.27302173  0.24488196  0.52684767  1
  N  N14  4  0.41879358  0.79449483  0.57792980  1
