###############################################################################################
#
# CIF file generated by modified CIFWriter class 
# in pymatgen (v2025.03.10) https://pymatgen.org/
#
###############################################################################################
data_PBE+MBD_tight_101fdb416202173
_symmetry_space_group_name_H-M   P2_1/c
_cell_length_a   5.45507482
_cell_length_b   13.72104683
_cell_length_c   12.97773086
_cell_angle_alpha   90.00000000
_cell_angle_beta   59.83250810
_cell_angle_gamma   90.00000000
_symmetry_Int_Tables_number   14
_chemical_formula_moiety   'C9 H8 O4'
_chemical_formula_sum   'H32 C36 O16'
_cell_volume   839.81164397
_cell_formula_units_Z   4
loop_
 _symmetry_equiv_pos_site_id
 _symmetry_equiv_pos_as_xyz
  1  'x, y, z'
  2  '-x, -y, -z'
  3  '-x, y+1/2, -z+1/2'
  4  'x, -y+1/2, z+1/2'
loop_
 _atom_site_type_symbol
 _atom_site_label
 _atom_site_symmetry_multiplicity
 _atom_site_fract_x
 _atom_site_fract_y
 _atom_site_fract_z
 _atom_site_occupancy
  H  H0  4  -0.71874904  0.18635960  0.27931594  1
  H  H1  4  -0.67291378  0.06485576  0.32041742  1
  H  H2  4  -0.65312962  0.08528976  0.18206042  1
  H  H3  4  -0.11624666  0.37893908  0.22106171  1
  H  H4  4  0.08411319  0.45027243  0.38476889  1
  H  H5  4  0.21965373  0.61007286  1.03338967  1
  H  H6  4  0.26193052  0.76750269  1.11806788  1
  H  H7  4  0.34645691  0.46367452  0.13891384  1
  C  C8  4  -0.60474682  0.11728352  0.24740210  1
  C  C9  4  -0.29188747  0.13203429  0.18891401  1
  C  C10  4  0.05154290  0.23831839  0.59474405  1
  C  C11  4  0.07335257  0.15113886  0.64489933  1
  C  C12  4  0.28973470  0.21966417  -0.00287885  1
  C  C13  4  0.29571324  0.37133201  0.43307040  1
  C  C14  4  0.33401238  0.10428018  0.59838410  1
  C  C15  4  0.42548659  0.85459548  0.49737359  1
  C  C16  4  0.44849823  0.73282962  1.04566160  1
  O  O17  4  -0.22371231  0.22492718  0.14746588  1
  O  O18  4  -0.11656955  0.07150128  0.17839213  1
  O  O19  4  0.05914548  0.38788744  0.42822739  1
  O  O20  4  0.49471963  0.92349029  1.11519616  1
