###############################################################################################
#
# CIF file generated by modified CIFWriter class 
# in pymatgen (v2025.03.10) https://pymatgen.org/
#
###############################################################################################
data_PBE+MBD_tight_11c94376a8a929e
_symmetry_space_group_name_H-M   P222_1
_cell_length_a   6.64978540
_cell_length_b   12.37314130
_cell_length_c   11.87701136
_cell_angle_alpha   90.00000000
_cell_angle_beta   90.00000000
_cell_angle_gamma   90.00000000
_symmetry_Int_Tables_number   17
_chemical_formula_moiety   'C9 H8 O4'
_chemical_formula_sum   'H32 C36 O16'
_cell_volume   977.22546359
_cell_formula_units_Z   4
loop_
 _symmetry_equiv_pos_site_id
 _symmetry_equiv_pos_as_xyz
  1  'x, y, z'
  2  '-x, -y, z+1/2'
  3  'x, -y, -z'
  4  '-x, y, -z+1/2'
loop_
 _atom_site_type_symbol
 _atom_site_label
 _atom_site_symmetry_multiplicity
 _atom_site_fract_x
 _atom_site_fract_y
 _atom_site_fract_z
 _atom_site_occupancy
  H  H0  4  0.11774152  -0.10022007  0.67386724  1
  H  H1  4  0.14138823  0.30287864  0.79808408  1
  H  H2  4  0.17621242  0.25595174  1.13899319  1
  H  H3  4  0.24490349  -0.03253237  0.78644466  1
  H  H4  4  0.26047977  0.10525211  1.00765687  1
  H  H5  4  0.29093834  0.42439035  0.46902822  1
  H  H6  4  0.38669149  -0.09890725  0.67985880  1
  H  H7  4  0.40716163  0.41442166  1.15477414  1
  C  C8  4  0.19149149  0.29776741  0.63797852  1
  C  C9  4  0.24662283  0.05059336  0.63056501  1
  C  C10  4  0.24997577  -0.05241243  0.69630334  1
  C  C11  4  0.31199736  0.26013347  1.08785472  1
  C  C12  4  0.35120553  0.27517689  0.55347042  1
  C  C13  4  0.35748312  0.17590664  1.01430533  1
  C  C14  4  0.39211090  0.35539078  0.47345981  1
  C  C15  4  0.44011593  0.34905408  1.09621199  1
  C  C16  4  0.47365991  0.18282120  0.55477359  1
  O  O17  4  0.02813678  0.33903341  0.61286197  1
  O  O18  4  0.09904272  0.09183134  0.58907838  1
  O  O19  4  0.24752395  0.27590431  0.74254324  1
  O  O20  4  0.43800805  0.09300942  0.62229941  1
