###############################################################################################
#
# CIF file generated by modified CIFWriter class 
# in pymatgen (v2025.03.10) https://pymatgen.org/
#
###############################################################################################
data_PBE+MBD_tight_11e6b73135a049a
_symmetry_space_group_name_H-M   Pnc2
_cell_length_a   13.94318980
_cell_length_b   14.42163001
_cell_length_c   5.39474688
_cell_angle_alpha   90.00000000
_cell_angle_beta   90.00000000
_cell_angle_gamma   90.00000000
_symmetry_Int_Tables_number   30
_chemical_formula_moiety   'C9 H8 O4'
_chemical_formula_sum   'H32 C36 O16'
_cell_volume   1084.79471623
_cell_formula_units_Z   4
loop_
 _symmetry_equiv_pos_site_id
 _symmetry_equiv_pos_as_xyz
  1  'x, y, z'
  2  '-x, -y, z'
  3  '-x, y+1/2, z+1/2'
  4  'x, -y+1/2, z+1/2'
loop_
 _atom_site_type_symbol
 _atom_site_label
 _atom_site_symmetry_multiplicity
 _atom_site_fract_x
 _atom_site_fract_y
 _atom_site_fract_z
 _atom_site_occupancy
  H  H0  4  0.00953233  0.65758529  0.61936158  1
  H  H1  4  0.04799192  0.55654982  0.97460463  1
  H  H2  4  0.14075270  0.71046244  0.33460063  1
  H  H3  4  0.17379782  0.39349868  1.49764703  1
  H  H4  4  0.18660401  0.28521082  1.34113630  1
  H  H5  4  0.28628689  0.36448144  1.37056954  1
  H  H6  4  0.30862308  0.66052773  0.41349339  1
  H  H7  4  0.45401602  0.43394445  0.77022975  1
  C  C8  4  0.08317990  0.63426782  0.64580809  1
  C  C9  4  0.10403846  0.57613452  0.84486407  1
  C  C10  4  0.15646321  0.66425275  0.48862405  1
  C  C11  4  0.17930563  0.40310761  1.10390189  1
  C  C12  4  0.19738136  0.54448919  0.87954974  1
  C  C13  4  0.20872299  0.35798126  1.34129127  1
  C  C14  4  0.25044212  0.63632629  0.53183685  1
  C  C15  4  0.27178435  0.57428573  0.72417475  1
  C  C16  4  0.37254039  0.54182245  0.74932913  1
  O  O17  4  0.12631247  0.37091675  0.94759725  1
  O  O18  4  0.22043811  0.48964152  1.08339535  1
  O  O19  4  0.38253300  0.45170369  0.78268051  1
  O  O20  4  0.44039921  0.59691624  0.72947103  1
