###############################################################################################
#
# CIF file generated by modified CIFWriter class 
# in pymatgen (v2025.03.10) https://pymatgen.org/
#
###############################################################################################
data_PBE+MBD_tight_12f6a1af276d1cd
_symmetry_space_group_name_H-M   P2_12_12
_cell_length_a   8.99312613
_cell_length_b   11.84064160
_cell_length_c   8.49686580
_cell_angle_alpha   90.00000000
_cell_angle_beta   90.00000000
_cell_angle_gamma   90.00000000
_symmetry_Int_Tables_number   18
_chemical_formula_moiety   'C9 H8 O4'
_chemical_formula_sum   'H32 C36 O16'
_cell_volume   904.78351565
_cell_formula_units_Z   4
loop_
 _symmetry_equiv_pos_site_id
 _symmetry_equiv_pos_as_xyz
  1  'x, y, z'
  2  '-x, -y, z'
  3  'x+1/2, -y+1/2, -z'
  4  '-x+1/2, y+1/2, -z'
loop_
 _atom_site_type_symbol
 _atom_site_label
 _atom_site_symmetry_multiplicity
 _atom_site_fract_x
 _atom_site_fract_y
 _atom_site_fract_z
 _atom_site_occupancy
  H  H0  4  -0.18492037  1.24621121  0.94163237  1
  H  H1  4  -0.07462173  1.16393113  1.06952862  1
  H  H2  4  -0.06808071  1.31572203  1.08188741  1
  H  H3  4  -0.00023588  1.24384750  0.55320636  1
  H  H4  4  0.11089187  1.19981666  0.29441456  1
  H  H5  4  0.11915789  0.44324208  0.48742478  1
  H  H6  4  0.18193980  0.44563252  -0.01917146  1
  H  H7  4  0.19736993  0.54653510  0.72807604  1
  C  C8  4  -0.07760562  1.24333829  1.00348852  1
  C  C9  4  0.04144465  1.24599942  0.88163284  1
  C  C10  4  0.08649325  1.17998254  0.54340449  1
  C  C11  4  0.13332712  1.12267973  0.67788484  1
  C  C12  4  0.14764704  1.15340448  0.39765027  1
  C  C13  4  0.19996292  0.46714244  0.19935217  1
  C  C14  4  0.20022739  0.51121916  0.48033514  1
  C  C15  4  0.24158847  1.03726316  0.66911710  1
  C  C16  4  0.24504970  0.56862393  0.61439844  1
  O  O17  4  0.05758920  1.14053169  0.81825045  1
  O  O18  4  0.11408630  1.32775528  0.84006122  1
  O  O19  4  0.12583995  0.38224966  0.22446460  1
  O  O20  4  0.22959932  0.50188118  0.05172897  1
