###############################################################################################
#
# CIF file generated by modified CIFWriter class 
# in pymatgen (v2025.03.10) https://pymatgen.org/
#
###############################################################################################
data_PBE+MBD_tight_140bed154ee0e77
_symmetry_space_group_name_H-M   P2_1/c
_cell_length_a   11.10021813
_cell_length_b   5.44083831
_cell_length_c   13.80655707
_cell_angle_alpha   90.00000000
_cell_angle_beta   94.00331154
_cell_angle_gamma   90.00000000
_symmetry_Int_Tables_number   14
_chemical_formula_moiety   'C9 H8 O4'
_chemical_formula_sum   'H32 C36 O16'
_cell_volume   831.80544688
_cell_formula_units_Z   4
loop_
 _symmetry_equiv_pos_site_id
 _symmetry_equiv_pos_as_xyz
  1  'x, y, z'
  2  '-x, -y, -z'
  3  '-x, y+1/2, -z+1/2'
  4  'x, -y+1/2, z+1/2'
loop_
 _atom_site_type_symbol
 _atom_site_label
 _atom_site_symmetry_multiplicity
 _atom_site_fract_x
 _atom_site_fract_y
 _atom_site_fract_z
 _atom_site_occupancy
  H  H0  4  -0.01578787  -0.01086698  0.58495620  1
  H  H1  4  0.02808366  1.49151329  0.21081756  1
  H  H2  4  0.11069218  1.08104887  -0.12544724  1
  H  H3  4  0.12206073  1.64704105  0.12874129  1
  H  H4  4  0.19823131  0.78172773  0.29299444  1
  H  H5  4  0.37076259  0.49191229  -0.12341074  1
  H  H6  4  0.44036366  1.29718232  0.22292646  1
  H  H7  4  0.45643203  0.86117829  0.53827999  1
  C  C8  4  0.06192683  0.00963265  0.63831564  1
  C  C9  4  0.12348244  1.25313424  0.11960157  1
  C  C10  4  0.18778573  0.98230574  -0.09141408  1
  C  C11  4  0.23648029  0.43783612  0.49888727  1
  C  C12  4  0.23651243  0.72037242  0.36365480  1
  C  C13  4  0.33311057  0.65300473  -0.08961426  1
  C  C14  4  0.33652621  0.94225788  0.04587733  1
  C  C15  4  0.38128842  0.76593744  0.50016752  1
  C  C16  4  0.40363565  1.01880109  0.13816582  1
  O  O17  4  0.12103570  1.06685029  0.16776648  1
  O  O18  4  0.18194606  1.26969261  0.03542079  1
  O  O19  4  0.38508917  0.25128554  0.66491982  1
  O  O20  4  0.47423303  0.62410057  0.68233464  1
