###############################################################################################
#
# CIF file generated by modified CIFWriter class 
# in pymatgen (v2025.03.10) https://pymatgen.org/
#
###############################################################################################
data_PBE+MBD_tight_1425f888b558fc2
_symmetry_space_group_name_H-M   P2_1/c
_cell_length_a   9.61957962
_cell_length_b   5.40456194
_cell_length_c   17.92373949
_cell_angle_alpha   90.00000000
_cell_angle_beta   109.33729279
_cell_angle_gamma   90.00000000
_symmetry_Int_Tables_number   14
_chemical_formula_moiety   'C9 H8 O4'
_chemical_formula_sum   'H32 C36 O16'
_cell_volume   879.27865608
_cell_formula_units_Z   4
loop_
 _symmetry_equiv_pos_site_id
 _symmetry_equiv_pos_as_xyz
  1  'x, y, z'
  2  '-x, -y, -z'
  3  '-x, y+1/2, -z+1/2'
  4  'x, -y+1/2, z+1/2'
loop_
 _atom_site_type_symbol
 _atom_site_label
 _atom_site_symmetry_multiplicity
 _atom_site_fract_x
 _atom_site_fract_y
 _atom_site_fract_z
 _atom_site_occupancy
  H  H0  4  -0.21148774  0.60089563  0.83582414  1
  H  H1  4  -0.17429618  0.20865917  0.91594866  1
  H  H2  4  0.00015789  0.70031640  0.31155860  1
  H  H3  4  0.07856460  0.03242419  0.97076133  1
  H  H4  4  0.39198210  0.97663930  0.79852142  1
  H  H5  4  0.46621979  0.75085981  0.24901971  1
  H  H6  4  0.46893190  0.22607070  0.14544488  1
  H  H7  4  0.47676819  0.85624833  0.04065357  1
  C  C8  4  -0.10296187  0.51707481  0.86048935  1
  C  C9  4  -0.08172314  1.19924672  0.40537453  1
  C  C10  4  0.01610095  0.86902564  0.34660884  1
  C  C11  4  0.05900565  0.20239189  0.93648056  1
  C  C12  4  0.15680154  0.96891063  0.37812039  1
  C  C13  4  0.18140314  0.31419564  0.92406349  1
  C  C14  4  0.31839483  0.89203749  0.30507769  1
  C  C15  4  0.32547258  0.18978559  0.96055096  1
  C  C16  4  0.43409117  0.71308290  0.30087416  1
  O  O17  4  0.26904427  0.43561210  0.76110931  1
  O  O18  4  0.27168997  0.83223681  0.36743108  1
  O  O19  4  0.34052525  0.02903209  1.01246526  1
  O  O20  4  0.43290839  1.24454231  0.43435977  1
