###############################################################################################
#
# CIF file generated by modified CIFWriter class 
# in pymatgen (v2025.03.10) https://pymatgen.org/
#
###############################################################################################
data_PBE+MBD_tight_1444f391ddc555c
_symmetry_space_group_name_H-M   P2_1/c
_cell_length_a   8.60067481
_cell_length_b   5.06474085
_cell_length_c   23.39980349
_cell_angle_alpha   90.00000000
_cell_angle_beta   122.05182485
_cell_angle_gamma   90.00000000
_symmetry_Int_Tables_number   14
_chemical_formula_moiety   'C9 H8 O4'
_chemical_formula_sum   'H32 C36 O16'
_cell_volume   863.92638421
_cell_formula_units_Z   4
loop_
 _symmetry_equiv_pos_site_id
 _symmetry_equiv_pos_as_xyz
  1  'x, y, z'
  2  '-x, -y, -z'
  3  '-x, y+1/2, -z+1/2'
  4  'x, -y+1/2, z+1/2'
loop_
 _atom_site_type_symbol
 _atom_site_label
 _atom_site_symmetry_multiplicity
 _atom_site_fract_x
 _atom_site_fract_y
 _atom_site_fract_z
 _atom_site_occupancy
  H  H0  4  -0.45982256  0.94823867  0.81017097  1
  H  H1  4  -0.33093794  0.60406824  0.90061319  1
  H  H2  4  -0.32789474  1.00370611  0.73870956  1
  H  H3  4  -0.06749061  0.78218575  0.25818569  1
  H  H4  4  0.10095190  -0.02112388  0.98227026  1
  H  H5  4  0.36312584  0.01300630  0.92226376  1
  H  H6  4  0.37138243  1.34426709  0.35498159  1
  H  H7  4  0.46670280  0.74084580  0.05964205  1
  C  C8  4  -0.34713761  0.82239166  0.81821429  1
  C  C9  4  -0.27558163  0.86835703  0.36856968  1
  C  C10  4  -0.27300297  0.64635747  0.27808715  1
  C  C11  4  -0.12908663  1.03134108  0.38038110  1
  C  C12  4  -0.12750351  0.69527973  0.78884578  1
  C  C13  4  -0.06728136  0.26531144  0.93414031  1
  C  C14  4  -0.05543316  0.99436658  0.33964810  1
  C  C15  4  0.26179940  0.40371379  0.89930553  1
  C  C16  4  0.39225292  0.19699440  0.90464697  1
  O  O17  4  -0.14989020  1.26282532  0.46415461  1
  O  O18  4  0.07403933  1.37927673  0.44652147  1
  O  O19  4  0.08486571  1.15112009  0.34562597  1
  O  O20  4  0.29542617  0.59579740  0.93454423  1
