###############################################################################################
#
# CIF file generated by modified CIFWriter class 
# in pymatgen (v2025.03.10) https://pymatgen.org/
#
###############################################################################################
data_PBE+MBD_tight_16c94f1009a3ac6
_symmetry_space_group_name_H-M   Cc
_cell_length_a   5.07870764
_cell_length_b   25.53647325
_cell_length_c   6.87995812
_cell_angle_alpha   90.00000000
_cell_angle_beta   97.00003106
_cell_angle_gamma   90.00000000
_symmetry_Int_Tables_number   9
_chemical_formula_moiety   'C9 H8 O4'
_chemical_formula_sum   'H32 C36 O16'
_cell_volume   885.62650759
_cell_formula_units_Z   4
loop_
 _symmetry_equiv_pos_site_id
 _symmetry_equiv_pos_as_xyz
  1  'x, y, z'
  2  'x, -y, z+1/2'
  3  'x+1/2, y+1/2, z'
  4  'x+1/2, -y+1/2, z+1/2'
loop_
 _atom_site_type_symbol
 _atom_site_label
 _atom_site_symmetry_multiplicity
 _atom_site_fract_x
 _atom_site_fract_y
 _atom_site_fract_z
 _atom_site_occupancy
  H  H0  4  -0.12952642  0.36073503  -0.00081872  1
  H  H1  4  -0.05761241  0.32856265  0.34483181  1
  H  H2  4  0.18619263  0.57469952  0.38420296  1
  H  H3  4  0.31572296  0.73317675  1.35576730  1
  H  H4  4  0.46312091  0.32536434  0.95072835  1
  H  H5  4  0.54855307  0.53901143  0.61960883  1
  H  H6  4  0.66761014  0.27179963  0.88404091  1
  H  H7  4  0.73681037  0.53227183  1.26546046  1
  C  C8  4  0.03432768  0.37586986  0.10011784  1
  C  C9  4  0.07322596  0.64221059  0.79241820  1
  C  C10  4  0.20792801  0.41255684  0.03612848  1
  C  C11  4  0.28075567  0.37754562  0.42232053  1
  C  C12  4  0.41114191  0.43264107  0.16784543  1
  C  C13  4  0.44831573  0.58285594  0.86518558  1
  C  C14  4  0.47328115  0.68621172  1.14151309  1
  C  C15  4  0.48301145  0.29369478  0.84623523  1
  C  C16  4  0.64443696  0.44794027  0.49682020  1
  O  O17  4  0.31152720  0.64302617  1.11195207  1
  O  O18  4  0.58645445  0.29487943  0.51257017  1
  O  O19  4  0.64923329  0.56209600  1.18751880  1
  O  O20  4  0.78251360  0.51713232  0.93720737  1
