###############################################################################################
#
# CIF file generated by modified CIFWriter class 
# in pymatgen (v2025.03.10) https://pymatgen.org/
#
###############################################################################################
data_PBE+MBD_tight_17422eac1830d1f
_symmetry_space_group_name_H-M   P2/c
_cell_length_a   12.18872021
_cell_length_b   5.88386886
_cell_length_c   12.55561315
_cell_angle_alpha   90.00000000
_cell_angle_beta   98.64431943
_cell_angle_gamma   90.00000000
_symmetry_Int_Tables_number   13
_chemical_formula_moiety   'C9 H8 O4'
_chemical_formula_sum   'H32 C36 O16'
_cell_volume   890.22006757
_cell_formula_units_Z   4
loop_
 _symmetry_equiv_pos_site_id
 _symmetry_equiv_pos_as_xyz
  1  'x, y, z'
  2  '-x, -y, -z'
  3  '-x, y, -z+1/2'
  4  'x, -y, z+1/2'
loop_
 _atom_site_type_symbol
 _atom_site_label
 _atom_site_symmetry_multiplicity
 _atom_site_fract_x
 _atom_site_fract_y
 _atom_site_fract_z
 _atom_site_occupancy
  H  H0  4  0.04462262  1.07359901  0.16740240  1
  H  H1  4  0.08752121  0.57170707  0.49719015  1
  H  H2  4  0.14377631  1.30870434  0.31780501  1
  H  H3  4  0.32393238  1.17224084  0.41750824  1
  H  H4  4  0.33551886  0.78819958  0.55659548  1
  H  H5  4  0.40778401  0.81332086  0.35995891  1
  H  H6  4  0.42619943  0.18904978  0.17910040  1
  H  H7  4  0.47794720  0.71514290  0.55893973  1
  C  C8  4  0.09759459  0.32004225  0.59637916  1
  C  C9  4  0.12470951  -0.02112819  0.71059947  1
  C  C10  4  0.16900750  0.81567504  0.17905137  1
  C  C11  4  0.17966901  -0.14979006  0.79464168  1
  C  C12  4  0.27312257  0.25286370  0.73355012  1
  C  C13  4  0.28110705  -0.07473247  0.84997457  1
  C  C14  4  0.32816184  0.87422899  0.31867667  1
  C  C15  4  0.38029968  0.52950493  0.12773148  1
  C  C16  4  0.40864726  0.28934636  0.10505093  1
  O  O17  4  -0.00402062  0.28260984  0.57749712  1
  O  O18  4  0.14673372  0.52033054  0.04683143  1
  O  O19  4  0.31989509  0.46042685  0.71142461  1
  O  O20  4  0.40458834  0.69797921  0.08044877  1
