###############################################################################################
#
# CIF file generated by modified CIFWriter class 
# in pymatgen (v2025.03.10) https://pymatgen.org/
#
###############################################################################################
data_PBE+MBD_tight_17c3c92c765cf
_symmetry_space_group_name_H-M   Pca2_1
_cell_length_a   9.60774247
_cell_length_b   11.14985932
_cell_length_c   8.60060590
_cell_angle_alpha   90.00000000
_cell_angle_beta   90.00000000
_cell_angle_gamma   90.00000000
_symmetry_Int_Tables_number   29
_chemical_formula_moiety   'C9 H8 O4'
_chemical_formula_sum   'H32 C36 O16'
_cell_volume   921.33970941
_cell_formula_units_Z   4
loop_
 _symmetry_equiv_pos_site_id
 _symmetry_equiv_pos_as_xyz
  1  'x, y, z'
  2  '-x, -y, z+1/2'
  3  '-x+1/2, y, z+1/2'
  4  'x+1/2, -y, z'
loop_
 _atom_site_type_symbol
 _atom_site_label
 _atom_site_symmetry_multiplicity
 _atom_site_fract_x
 _atom_site_fract_y
 _atom_site_fract_z
 _atom_site_occupancy
  H  H0  4  -0.09094128  0.53867367  0.73811371  1
  H  H1  4  -0.03743535  0.97215007  0.32966006  1
  H  H2  4  -0.01191445  0.37559611  0.60487230  1
  H  H3  4  0.07507600  0.18697199  0.48280379  1
  H  H4  4  0.15736229  0.51515039  0.73212164  1
  H  H5  4  0.22506352  0.86552850  0.27716776  1
  H  H6  4  0.22642655  0.71977445  0.18382849  1
  H  H7  4  0.22923645  0.85518547  0.07212780  1
  C  C8  4  -0.21128255  0.77826276  0.53209352  1
  C  C9  4  -0.17430198  0.89239071  0.45107951  1
  C  C10  4  -0.16579867  0.59546755  0.67808863  1
  C  C11  4  -0.11840247  0.69940676  0.60529795  1
  C  C12  4  0.08004365  0.81594513  0.67999725  1
  C  C13  4  0.09888369  0.35505628  0.60571747  1
  C  C14  4  0.14657949  0.25020540  0.53676505  1
  C  C15  4  0.19314542  0.43290814  0.67663569  1
  C  C16  4  0.23502815  0.81214909  0.68012785  1
  O  O17  4  -0.04992777  0.89248495  0.38189819  1
  O  O18  4  0.00620214  0.89424442  0.73437945  1
  O  O19  4  0.02571828  0.71613649  0.60970882  1
  O  O20  4  0.24446601  0.02320774  0.44663982  1
