###############################################################################################
#
# CIF file generated by modified CIFWriter class 
# in pymatgen (v2025.03.10) https://pymatgen.org/
#
###############################################################################################
data_PBE+MBD_tight_192603d95f6dbd4
_symmetry_space_group_name_H-M   Pna2_1
_cell_length_a   10.77240698
_cell_length_b   14.22329992
_cell_length_c   5.88635160
_cell_angle_alpha   90.00000000
_cell_angle_beta   90.00000000
_cell_angle_gamma   90.00000000
_symmetry_Int_Tables_number   33
_chemical_formula_moiety   'C9 H8 O4'
_chemical_formula_sum   'H32 C36 O16'
_cell_volume   901.90193846
_cell_formula_units_Z   4
loop_
 _symmetry_equiv_pos_site_id
 _symmetry_equiv_pos_as_xyz
  1  'x, y, z'
  2  '-x, -y, z+1/2'
  3  '-x+1/2, y+1/2, z+1/2'
  4  'x+1/2, -y+1/2, z'
loop_
 _atom_site_type_symbol
 _atom_site_label
 _atom_site_symmetry_multiplicity
 _atom_site_fract_x
 _atom_site_fract_y
 _atom_site_fract_z
 _atom_site_occupancy
  H  H0  4  0.03148123  0.68623981  -0.00050112  1
  H  H1  4  0.04923930  0.57139170  0.12612737  1
  H  H2  4  0.06186463  0.13772515  0.02324304  1
  H  H3  4  0.08226614  0.93681754  0.29981782  1
  H  H4  4  0.10758351  1.05720745  0.60411215  1
  H  H5  4  0.17317754  0.35878172  0.48587397  1
  H  H6  4  0.17920335  0.63372167  0.00810482  1
  H  H7  4  0.22669772  1.01545628  0.95767881  1
  C  C8  4  0.09166587  0.64051484  0.10179811  1
  C  C9  4  0.11535596  0.68599478  0.32595992  1
  C  C10  4  0.13395460  0.92086572  0.45435455  1
  C  C11  4  0.14745402  0.98735390  0.62661907  1
  C  C12  4  0.15592218  0.22605189  0.18616160  1
  C  C13  4  0.19046395  0.83272214  0.47202770  1
  C  C14  4  0.21472086  0.96441370  0.82159385  1
  C  C15  4  0.22791014  0.37722697  0.33720961  1
  C  C16  4  0.23536436  0.31081708  0.16134821  1
  O  O17  4  0.09049264  0.65611604  0.51284616  1
  O  O18  4  0.11519618  0.19800552  0.36755673  1
  O  O19  4  0.12547862  0.18490006  -0.01333985  1
  O  O20  4  0.17074122  0.77302764  0.29041068  1
