###############################################################################################
#
# CIF file generated by modified CIFWriter class 
# in pymatgen (v2025.03.10) https://pymatgen.org/
#
###############################################################################################
data_PBE+MBD_tight_1a6005ef3b022ef
_symmetry_space_group_name_H-M   P4_1
_cell_length_a   11.08346136
_cell_length_b   11.08346136
_cell_length_c   8.18440376
_cell_angle_alpha   90.00000000
_cell_angle_beta   90.00000000
_cell_angle_gamma   90.00000000
_symmetry_Int_Tables_number   76
_chemical_formula_moiety   'C9 H8 O4'
_chemical_formula_sum   'H32 C36 O16'
_cell_volume   1005.39765878
_cell_formula_units_Z   4
loop_
 _symmetry_equiv_pos_site_id
 _symmetry_equiv_pos_as_xyz
  1  'x, y, z'
  2  '-y, x, z+1/4'
  3  '-x, -y, z+1/2'
  4  'y, -x, z+3/4'
loop_
 _atom_site_type_symbol
 _atom_site_label
 _atom_site_symmetry_multiplicity
 _atom_site_fract_x
 _atom_site_fract_y
 _atom_site_fract_z
 _atom_site_occupancy
  H  H0  4  -0.31492913  0.37650953  0.66637119  1
  H  H1  4  -0.28147640  0.47353313  0.83519747  1
  H  H2  4  -0.20245297  0.49306014  0.64864871  1
  H  H3  4  -0.05026642  0.27733739  1.14376181  1
  H  H4  4  0.07799753  0.46107639  0.49446209  1
  H  H5  4  0.13733088  0.19246277  1.26967345  1
  H  H6  4  0.21518093  0.66609443  0.87418607  1
  H  H7  4  0.31740424  0.65817155  0.60536109  1
  C  C8  4  -0.24332684  0.42542824  0.72972581  1
  C  C9  4  -0.14855099  0.33918497  0.78686690  1
  C  C10  4  0.03621296  0.28358348  1.08112781  1
  C  C11  4  0.04189131  0.34092927  0.93022512  1
  C  C12  4  0.14092092  0.23648554  1.15071064  1
  C  C13  4  0.15095223  0.35151227  0.84428850  1
  C  C14  4  0.16401239  0.41070668  0.68200976  1
  C  C15  4  0.24921959  0.74895202  0.81929342  1
  C  C16  4  0.25591894  0.30638089  0.91818009  1
  O  O17  4  -0.14284191  0.23183635  0.76602535  1
  O  O18  4  -0.06077480  0.40221692  0.87442957  1
  O  O19  4  0.06309676  0.40949306  0.59105904  1
  O  O20  4  0.25860742  0.45573236  0.63483798  1
