###############################################################################################
#
# CIF file generated by modified CIFWriter class 
# in pymatgen (v2025.03.10) https://pymatgen.org/
#
###############################################################################################
data_PBE+MBD_tight_1bbc3fa730f360f
_symmetry_space_group_name_H-M   P2_1/c
_cell_length_a   8.16435151
_cell_length_b   5.25936282
_cell_length_c   21.49923090
_cell_angle_alpha   90.00000000
_cell_angle_beta   93.48178936
_cell_angle_gamma   90.00000000
_symmetry_Int_Tables_number   14
_chemical_formula_moiety   'C9 H8 O4'
_chemical_formula_sum   'H32 C36 O16'
_cell_volume   921.45762503
_cell_formula_units_Z   4
loop_
 _symmetry_equiv_pos_site_id
 _symmetry_equiv_pos_as_xyz
  1  'x, y, z'
  2  '-x, -y, -z'
  3  '-x, y+1/2, -z+1/2'
  4  'x, -y+1/2, z+1/2'
loop_
 _atom_site_type_symbol
 _atom_site_label
 _atom_site_symmetry_multiplicity
 _atom_site_fract_x
 _atom_site_fract_y
 _atom_site_fract_z
 _atom_site_occupancy
  H  H0  4  -0.04827263  0.18815632  0.12513851  1
  H  H1  4  -0.02652282  -0.00068675  0.23095443  1
  H  H2  4  0.01976203  0.29732687  -0.06428119  1
  H  H3  4  0.18004441  -0.01498227  0.45594130  1
  H  H4  4  0.21746886  0.23657730  -0.09098893  1
  H  H5  4  0.25043500  0.61035224  0.78087493  1
  H  H6  4  0.37585822  0.80853545  0.96585720  1
  H  H7  4  0.49974374  0.52590130  0.72315348  1
  C  C8  4  0.07148427  0.35906976  0.64723708  1
  C  C9  4  0.08459001  0.46480396  0.70672725  1
  C  C10  4  0.15226966  0.31415106  -0.05220278  1
  C  C11  4  0.18932948  0.15879357  0.00490645  1
  C  C12  4  0.21208599  0.31708894  0.61528899  1
  C  C13  4  0.23860299  -0.02488799  0.23465311  1
  C  C14  4  0.36896331  0.37564937  0.64208101  1
  C  C15  4  0.37827695  0.02078796  0.20250748  1
  C  C16  4  0.47226800  0.65258565  0.38803022  1
  O  O17  4  0.18838724  0.19741482  0.55727303  1
  O  O18  4  0.21247361  -0.07110322  0.00655107  1
  O  O19  4  0.33945525  0.88618472  0.85979680  1
  O  O20  4  0.48533887  0.78388557  0.94847495  1
