###############################################################################################
#
# CIF file generated by modified CIFWriter class 
# in pymatgen (v2025.03.10) https://pymatgen.org/
#
###############################################################################################
data_PBE+MBD_tight_1e3f28849db40a0
_symmetry_space_group_name_H-M   Pca2_1
_cell_length_a   8.43158267
_cell_length_b   9.12342737
_cell_length_c   12.68631637
_cell_angle_alpha   90.00000000
_cell_angle_beta   90.00000000
_cell_angle_gamma   90.00000000
_symmetry_Int_Tables_number   29
_chemical_formula_moiety   'C9 H8 O4'
_chemical_formula_sum   'H32 C36 O16'
_cell_volume   975.89402583
_cell_formula_units_Z   4
loop_
 _symmetry_equiv_pos_site_id
 _symmetry_equiv_pos_as_xyz
  1  'x, y, z'
  2  '-x, -y, z+1/2'
  3  '-x+1/2, y, z+1/2'
  4  'x+1/2, -y, z'
loop_
 _atom_site_type_symbol
 _atom_site_label
 _atom_site_symmetry_multiplicity
 _atom_site_fract_x
 _atom_site_fract_y
 _atom_site_fract_z
 _atom_site_occupancy
  H  H0  4  -0.13860271  0.64228447  0.91251856  1
  H  H1  4  -0.08465319  0.85375431  0.79091671  1
  H  H2  4  -0.02011724  0.39739903  0.87329879  1
  H  H3  4  0.05172448  1.11850909  0.55974549  1
  H  H4  4  0.13831958  0.64295724  -0.03388790  1
  H  H5  4  0.15063921  0.36692803  0.71446465  1
  H  H6  4  0.19419593  1.02373651  0.48302420  1
  H  H7  4  0.24192333  1.15920890  0.07669383  1
  C  C8  4  -0.06028803  0.62855436  0.84480714  1
  C  C9  4  -0.03028577  0.74682587  0.77825415  1
  C  C10  4  0.00437788  0.49070007  0.82226004  1
  C  C11  4  0.06527846  0.72779576  0.68979723  1
  C  C12  4  0.09966115  0.47311771  0.73390686  1
  C  C13  4  0.13427140  0.59139126  0.66680864  1
  C  C14  4  0.17216293  1.07231855  0.56093456  1
  C  C15  4  0.18145079  0.95552585  0.64364696  1
  C  C16  4  0.24032437  0.55946703  0.57601520  1
  O  O17  4  0.07780837  0.84400663  0.61955010  1
  O  O18  4  0.20560364  0.67878462  0.02411043  1
  O  O19  4  0.22223993  0.43503314  0.05023332  1
  O  O20  4  0.23463967  0.95365095  0.22118490  1
