###############################################################################################
#
# CIF file generated by modified CIFWriter class 
# in pymatgen (v2025.03.10) https://pymatgen.org/
#
###############################################################################################
data_PBE+MBD_tight_1fe15b0e87b2236
_symmetry_space_group_name_H-M   P2_12_12_1
_cell_length_a   13.98582233
_cell_length_b   9.18024813
_cell_length_c   6.57780484
_cell_angle_alpha   90.00000000
_cell_angle_beta   90.00000000
_cell_angle_gamma   90.00000000
_symmetry_Int_Tables_number   19
_chemical_formula_moiety   'C9 H8 O4'
_chemical_formula_sum   'H32 C36 O16'
_cell_volume   844.54619758
_cell_formula_units_Z   4
loop_
 _symmetry_equiv_pos_site_id
 _symmetry_equiv_pos_as_xyz
  1  'x, y, z'
  2  'x+1/2, -y+1/2, -z'
  3  '-x+1/2, -y, z+1/2'
  4  '-x, y+1/2, -z+1/2'
loop_
 _atom_site_type_symbol
 _atom_site_label
 _atom_site_symmetry_multiplicity
 _atom_site_fract_x
 _atom_site_fract_y
 _atom_site_fract_z
 _atom_site_occupancy
  H  H0  4  -0.12399642  0.61929839  0.62891916  1
  H  H1  4  -0.06060479  0.81965916  0.03681210  1
  H  H2  4  -0.04104841  0.47159245  0.89365520  1
  H  H3  4  0.13393246  0.42432400  0.86047475  1
  H  H4  4  0.16144799  0.82913429  -0.09198137  1
  H  H5  4  0.22335407  0.52526394  0.56242907  1
  H  H6  4  0.23469689  0.26222434  0.48749174  1
  H  H7  4  0.24416595  0.06802725  0.51931408  1
  C  C8  4  -0.05826605  0.73811846  0.30113578  1
  C  C9  4  -0.04781374  0.59623473  0.61695451  1
  C  C10  4  -0.00137219  0.51378978  0.76385343  1
  C  C11  4  0.00037496  0.65099258  0.44576789  1
  C  C12  4  0.09664105  0.48715234  0.74431797  1
  C  C13  4  0.09875853  0.62129700  0.42805770  1
  C  C14  4  0.14656714  0.54166454  0.57728079  1
  C  C15  4  0.16988619  0.80764225  0.22614147  1
  C  C16  4  0.21753703  0.82822141  0.02535208  1
  O  O17  4  -0.13600510  0.78995397  0.34542759  1
  O  O18  4  -0.01869310  0.75499106  0.11578192  1
  O  O19  4  0.14725632  0.90179346  0.34603630  1
  O  O20  4  0.15265634  0.66180234  0.25995816  1
