###############################################################################################
#
# CIF file generated by modified CIFWriter class 
# in pymatgen (v2025.03.10) https://pymatgen.org/
#
###############################################################################################
data_PBE+MBD_tight_20ce6e221825ca0
_symmetry_space_group_name_H-M   P2_1/c
_cell_length_a   11.72066303
_cell_length_b   6.32756472
_cell_length_c   11.39155175
_cell_angle_alpha   90.00000000
_cell_angle_beta   94.27293728
_cell_angle_gamma   90.00000000
_symmetry_Int_Tables_number   14
_chemical_formula_moiety   'C9 H8 O4'
_chemical_formula_sum   'H32 C36 O16'
_cell_volume   842.48627338
_cell_formula_units_Z   4
loop_
 _symmetry_equiv_pos_site_id
 _symmetry_equiv_pos_as_xyz
  1  'x, y, z'
  2  '-x, -y, -z'
  3  '-x, y+1/2, -z+1/2'
  4  'x, -y+1/2, z+1/2'
loop_
 _atom_site_type_symbol
 _atom_site_label
 _atom_site_symmetry_multiplicity
 _atom_site_fract_x
 _atom_site_fract_y
 _atom_site_fract_z
 _atom_site_occupancy
  H  H0  4  0.03601839  0.47238949  1.15001050  1
  H  H1  4  0.07198047  0.24014658  1.23585901  1
  H  H2  4  0.12295607  -0.25476145  0.99875145  1
  H  H3  4  0.17926594  0.07297113  0.71229350  1
  H  H4  4  0.19198304  0.96642742  0.33382927  1
  H  H5  4  0.35875332  -0.33759500  0.72867642  1
  H  H6  4  0.43121521  0.00564457  0.56537026  1
  H  H7  4  0.45605240  -0.00553803  0.79327741  1
  C  C8  4  0.10150592  0.35261268  1.17139245  1
  C  C9  4  0.12914111  0.24301679  1.06096762  1
  C  C10  4  0.19595936  -0.20219044  0.95251336  1
  C  C11  4  0.23466217  0.81898135  0.35971507  1
  C  C12  4  0.25054752  0.51483082  0.48727185  1
  C  C13  4  0.32810513  -0.24812592  0.80157914  1
  C  C14  4  0.34545043  0.05980002  0.93056946  1
  C  C15  4  0.38257482  -0.06155183  0.83728090  1
  C  C16  4  0.41096642  0.24448840  0.46154433  1
  O  O17  4  0.08775970  0.22082871  0.46210209  1
  O  O18  4  0.21096825  0.40987700  0.58401299  1
  O  O19  4  0.37866187  0.13510401  0.55165882  1
  O  O20  4  0.49233247  0.30939935  0.90399582  1
