###############################################################################################
#
# CIF file generated by modified CIFWriter class 
# in pymatgen (v2025.03.10) https://pymatgen.org/
#
###############################################################################################
data_PBE+MBD_tight_210d54330873811
_symmetry_space_group_name_H-M   P2_1/c
_cell_length_a   4.75884698
_cell_length_b   10.51210940
_cell_length_c   17.15177490
_cell_angle_alpha   90.00000000
_cell_angle_beta   95.86128814
_cell_angle_gamma   90.00000000
_symmetry_Int_Tables_number   14
_chemical_formula_moiety   'C9 H8 O4'
_chemical_formula_sum   'H32 C36 O16'
_cell_volume   853.54073237
_cell_formula_units_Z   4
loop_
 _symmetry_equiv_pos_site_id
 _symmetry_equiv_pos_as_xyz
  1  'x, y, z'
  2  '-x, -y, -z'
  3  '-x, y+1/2, -z+1/2'
  4  'x, -y+1/2, z+1/2'
loop_
 _atom_site_type_symbol
 _atom_site_label
 _atom_site_symmetry_multiplicity
 _atom_site_fract_x
 _atom_site_fract_y
 _atom_site_fract_z
 _atom_site_occupancy
  H  H0  4  -0.08161487  0.46319102  0.76720776  1
  H  H1  4  0.01347612  0.96617110  0.13538877  1
  H  H2  4  0.02710679  0.35522467  0.52671479  1
  H  H3  4  0.15683134  0.92351382  0.51625054  1
  H  H4  4  0.22900167  0.25924822  0.46902178  1
  H  H5  4  0.29806519  0.42753444  0.47559406  1
  H  H6  4  0.33571312  0.28541527  0.75951285  1
  H  H7  4  0.38188336  0.70053825  0.62089342  1
  C  C8  4  0.08250346  0.53346967  0.76055362  1
  C  C9  4  0.13588428  0.92586943  0.18643322  1
  C  C10  4  0.14665546  0.95943647  0.40506222  1
  C  C11  4  0.23276585  0.91673772  0.32857629  1
  C  C12  4  0.23863196  0.15685156  0.00741931  1
  C  C13  4  0.34120625  0.83328824  0.17870679  1
  C  C14  4  0.44526174  0.82655802  0.31902489  1
  C  C15  4  0.44670962  0.32056193  0.57720245  1
  C  C16  4  0.49765258  0.78441571  0.24505926  1
  O  O17  4  -0.02084211  1.04990687  0.40853185  1
  O  O18  4  0.25058504  0.89495699  0.46725414  1
  O  O19  4  0.34603550  0.61599717  0.40196832  1
  O  O20  4  0.37273437  0.21504722  0.61730530  1
