###############################################################################################
#
# CIF file generated by modified CIFWriter class 
# in pymatgen (v2025.03.10) https://pymatgen.org/
#
###############################################################################################
data_PBE+MBD_tight_2242633b9b1a312
_symmetry_space_group_name_H-M   P4_1
_cell_length_a   6.65292383
_cell_length_b   6.65292383
_cell_length_c   21.49406567
_cell_angle_alpha   90.00000000
_cell_angle_beta   90.00000000
_cell_angle_gamma   90.00000000
_symmetry_Int_Tables_number   76
_chemical_formula_moiety   'C9 H8 O4'
_chemical_formula_sum   'H32 C36 O16'
_cell_volume   951.35734194
_cell_formula_units_Z   4
loop_
 _symmetry_equiv_pos_site_id
 _symmetry_equiv_pos_as_xyz
  1  'x, y, z'
  2  '-y, x, z+1/4'
  3  '-x, -y, z+1/2'
  4  'y, -x, z+3/4'
loop_
 _atom_site_type_symbol
 _atom_site_label
 _atom_site_symmetry_multiplicity
 _atom_site_fract_x
 _atom_site_fract_y
 _atom_site_fract_z
 _atom_site_occupancy
  H  H0  4  -0.27389318  0.39585255  0.93086305  1
  H  H1  4  -0.15241800  0.59004573  1.02199177  1
  H  H2  4  -0.10634697  0.71672628  0.12006384  1
  H  H3  4  -0.05819010  0.37238370  0.83560856  1
  H  H4  4  -0.00293394  0.72777627  0.19654732  1
  H  H5  4  0.15203103  0.78545567  0.13193870  1
  H  H6  4  0.17703766  0.76982701  1.01634535  1
  H  H7  4  0.44794900  0.47790974  0.27801332  1
  C  C8  4  -0.12825074  0.46974875  0.92911931  1
  C  C9  4  -0.06104799  0.58035594  0.98010759  1
  C  C10  4  -0.00864478  0.45640095  0.87632330  1
  C  C11  4  0.02815713  0.68954037  0.14789495  1
  C  C12  4  0.08683595  0.47346507  0.14288349  1
  C  C13  4  0.12406299  0.67744990  0.97782537  1
  C  C14  4  0.18161770  0.54723191  0.87350607  1
  C  C15  4  0.24606093  0.65774449  0.92558489  1
  C  C16  4  0.29478412  0.52059425  0.81441563  1
  O  O17  4  0.00697209  0.34413601  0.11221402  1
  O  O18  4  0.21436127  0.48608808  0.76458100  1
  O  O19  4  0.25555390  0.43626098  0.17928276  1
  O  O20  4  0.46577693  0.49748149  0.07021985  1
