###############################################################################################
#
# CIF file generated by modified CIFWriter class 
# in pymatgen (v2025.03.10) https://pymatgen.org/
#
###############################################################################################
data_PBE+MBD_tight_2274bc089136a4f
_symmetry_space_group_name_H-M   Cc
_cell_length_a   4.69555443
_cell_length_b   18.00069037
_cell_length_c   10.60232280
_cell_angle_alpha   90.00000000
_cell_angle_beta   99.81754524
_cell_angle_gamma   90.00000000
_symmetry_Int_Tables_number   9
_chemical_formula_moiety   'C9 H8 O4'
_chemical_formula_sum   'H32 C36 O16'
_cell_volume   883.01912587
_cell_formula_units_Z   4
loop_
 _symmetry_equiv_pos_site_id
 _symmetry_equiv_pos_as_xyz
  1  'x, y, z'
  2  'x, -y, z+1/2'
  3  'x+1/2, y+1/2, z'
  4  'x+1/2, -y+1/2, z+1/2'
loop_
 _atom_site_type_symbol
 _atom_site_label
 _atom_site_symmetry_multiplicity
 _atom_site_fract_x
 _atom_site_fract_y
 _atom_site_fract_z
 _atom_site_occupancy
  H  H0  4  -0.24175065  0.54299000  1.15437544  1
  H  H1  4  -0.18375368  0.29961956  1.15888400  1
  H  H2  4  -0.02594263  0.35112143  0.55489837  1
  H  H3  4  -0.01183146  0.77674362  0.26143418  1
  H  H4  4  0.13303234  0.22707495  0.92752714  1
  H  H5  4  0.27800955  0.62442909  0.88561978  1
  H  H6  4  0.34444154  0.26320903  0.81909849  1
  H  H7  4  0.36154949  0.49509126  0.82161034  1
  C  C8  4  -0.19136886  0.59891487  0.61772916  1
  C  C9  4  -0.11030572  0.53323713  1.08081909  1
  C  C10  4  -0.06246784  0.45950662  1.04657900  1
  C  C11  4  -0.01116645  0.66867955  0.34676977  1
  C  C12  4  0.01135112  0.59234540  1.02470952  1
  C  C13  4  0.10816262  0.55245398  0.45160613  1
  C  C14  4  0.12123429  0.25637921  0.83584664  1
  C  C15  4  0.18023980  0.57894070  0.93086082  1
  C  C16  4  0.22779747  0.50642830  0.89379633  1
  O  O17  4  -0.08396570  0.66851819  0.60578110  1
  O  O18  4  0.12677562  0.91283137  1.18478323  1
  O  O19  4  0.18671047  0.37667891  0.91776003  1
  O  O20  4  0.24481350  0.84979911  0.80071477  1
