###############################################################################################
#
# CIF file generated by modified CIFWriter class 
# in pymatgen (v2025.03.10) https://pymatgen.org/
#
###############################################################################################
data_PBE+MBD_tight_2536210946dc860
_symmetry_space_group_name_H-M   C2
_cell_length_a   18.55337732
_cell_length_b   6.23665506
_cell_length_c   8.32722559
_cell_angle_alpha   90.00000000
_cell_angle_beta   100.20635892
_cell_angle_gamma   90.00000000
_symmetry_Int_Tables_number   5
_chemical_formula_moiety   'C9 H8 O4'
_chemical_formula_sum   'H32 C36 O16'
_cell_volume   948.30442845
_cell_formula_units_Z   4
loop_
 _symmetry_equiv_pos_site_id
 _symmetry_equiv_pos_as_xyz
  1  'x, y, z'
  2  '-x, y, -z'
  3  'x+1/2, y+1/2, z'
  4  '-x+1/2, y+1/2, -z'
loop_
 _atom_site_type_symbol
 _atom_site_label
 _atom_site_symmetry_multiplicity
 _atom_site_fract_x
 _atom_site_fract_y
 _atom_site_fract_z
 _atom_site_occupancy
  H  H0  4  -0.02407696  0.17972532  0.19330559  1
  H  H1  4  -0.00508265  0.37528963  0.35382990  1
  H  H2  4  -0.00233161  0.79064434  0.13188410  1
  H  H3  4  0.03382140  0.11496299  0.38333245  1
  H  H4  4  0.12675358  1.05630120  0.62501674  1
  H  H5  4  0.15010989  1.35009408  0.83214827  1
  H  H6  4  0.22199440  0.93720915  0.03889245  1
  H  H7  4  0.23176405  0.85255086  0.54950084  1
  C  C8  4  0.01725251  0.24143044  0.29262780  1
  C  C9  4  0.08224534  0.31615772  0.22441550  1
  C  C10  4  0.09837510  0.75898592  0.09476855  1
  C  C11  4  0.17376233  0.70111372  0.17500266  1
  C  C12  4  0.18257991  1.09829550  0.68065116  1
  C  C13  4  0.18786660  0.53590548  0.29139471  1
  C  C14  4  0.19538386  1.26252303  0.79604825  1
  C  C15  4  0.23308627  0.81132108  0.13076703  1
  C  C16  4  0.24076384  0.98355391  0.63732271  1
  O  O17  4  0.05022808  0.76296482  0.19408592  1
  O  O18  4  0.08332715  0.80005042  -0.05303952  1
  O  O19  4  0.09233871  0.29116673  0.08596066  1
  O  O20  4  0.13135362  0.42181905  0.34192231  1
