###############################################################################################
#
# CIF file generated by modified CIFWriter class 
# in pymatgen (v2025.03.10) https://pymatgen.org/
#
###############################################################################################
data_PBE+MBD_tight_261b33bf3620fc4
_symmetry_space_group_name_H-M   P2/c
_cell_length_a   11.25438429
_cell_length_b   8.88955867
_cell_length_c   9.43224374
_cell_angle_alpha   90.00000000
_cell_angle_beta   81.71670200
_cell_angle_gamma   90.00000000
_symmetry_Int_Tables_number   13
_chemical_formula_moiety   'C9 H8 O4'
_chemical_formula_sum   'H32 C36 O16'
_cell_volume   933.81860585
_cell_formula_units_Z   4
loop_
 _symmetry_equiv_pos_site_id
 _symmetry_equiv_pos_as_xyz
  1  'x, y, z'
  2  '-x, -y, -z'
  3  '-x, y, -z+1/2'
  4  'x, -y, z+1/2'
loop_
 _atom_site_type_symbol
 _atom_site_label
 _atom_site_symmetry_multiplicity
 _atom_site_fract_x
 _atom_site_fract_y
 _atom_site_fract_z
 _atom_site_occupancy
  H  H0  4  0.00634258  0.87293477  0.00230578  1
  H  H1  4  0.03512969  0.49252824  0.12144352  1
  H  H2  4  0.13821442  0.41016760  -0.02072278  1
  H  H3  4  0.14479143  0.63691955  0.66123392  1
  H  H4  4  0.24213490  -0.16258629  0.72969715  1
  H  H5  4  0.35719067  0.65289730  0.37396972  1
  H  H6  4  0.39771106  -0.13641832  0.88786816  1
  H  H7  4  0.46069280  0.12199484  0.95616329  1
  C  C8  4  0.11806774  0.04382478  0.61845602  1
  C  C9  4  0.12747851  0.54576899  0.58836102  1
  C  C10  4  0.21100658  0.07396433  0.71189087  1
  C  C11  4  0.21293917  0.41869135  0.59806005  1
  C  C12  4  0.24465019  0.78286474  0.25609618  1
  C  C13  4  0.26887928  1.05149505  0.26170976  1
  C  C14  4  0.33412026  0.23394353  0.84262087  1
  C  C15  4  0.35681898  1.03600886  0.34973851  1
  C  C16  4  0.39043259  0.89244671  0.38906395  1
  O  O17  4  0.06888766  0.83816710  0.06538779  1
  O  O18  4  0.08934993  1.08768093  0.09363693  1
  O  O19  4  0.18263770  0.65386535  0.22738754  1
  O  O20  4  0.29727643  0.61779132  0.01033787  1
