###############################################################################################
#
# CIF file generated by modified CIFWriter class 
# in pymatgen (v2025.03.10) https://pymatgen.org/
#
###############################################################################################
data_PBE+MBD_tight_264522c0ba72335
_symmetry_space_group_name_H-M   P2/c
_cell_length_a   6.99592397
_cell_length_b   8.64504305
_cell_length_c   15.22687839
_cell_angle_alpha   90.00000000
_cell_angle_beta   90.60007551
_cell_angle_gamma   90.00000000
_symmetry_Int_Tables_number   13
_chemical_formula_moiety   'C9 H8 O4'
_chemical_formula_sum   'H32 C36 O16'
_cell_volume   920.87207041
_cell_formula_units_Z   4
loop_
 _symmetry_equiv_pos_site_id
 _symmetry_equiv_pos_as_xyz
  1  'x, y, z'
  2  '-x, -y, -z'
  3  '-x, y, -z+1/2'
  4  'x, -y, z+1/2'
loop_
 _atom_site_type_symbol
 _atom_site_label
 _atom_site_symmetry_multiplicity
 _atom_site_fract_x
 _atom_site_fract_y
 _atom_site_fract_z
 _atom_site_occupancy
  H  H0  4  0.09525954  0.49988551  0.81093452  1
  H  H1  4  0.15632436  0.93484219  0.26404222  1
  H  H2  4  0.27679180  -0.15899873  1.01858296  1
  H  H3  4  0.28086894  0.62987951  0.83992383  1
  H  H4  4  0.28147443  0.39754413  1.09864046  1
  H  H5  4  0.31844673  0.50607454  0.25315089  1
  H  H6  4  0.34966441  0.80273512  0.71352291  1
  H  H7  4  0.36009155  1.08373114  0.66979615  1
  C  C8  4  0.19459016  0.01189125  0.88298895  1
  C  C9  4  0.23449160  0.07332909  0.97232838  1
  C  C10  4  0.23952224  0.23048828  0.99667628  1
  C  C11  4  0.25046759  0.51184021  0.81691851  1
  C  C12  4  0.27559189  -0.03746420  1.03726104  1
  C  C13  4  0.27970566  0.72540955  0.58279709  1
  C  C14  4  0.31950845  0.00606891  1.12284714  1
  C  C15  4  0.31950988  0.16245392  1.14603685  1
  C  C16  4  0.33203419  0.39839408  0.88113449  1
  O  O17  4  0.16806363  0.87881612  0.31978773  1
  O  O18  4  0.18768797  -0.12568849  0.86552114  1
  O  O19  4  0.19265742  0.65304573  0.43731140  1
  O  O20  4  0.49733036  0.35663969  0.88594901  1
