###############################################################################################
#
# CIF file generated by modified CIFWriter class 
# in pymatgen (v2025.03.10) https://pymatgen.org/
#
###############################################################################################
data_PBE+MBD_tight_269a25b59df9f7c
_symmetry_space_group_name_H-M   Pcc2
_cell_length_a   6.49584920
_cell_length_b   20.11286888
_cell_length_c   10.47276172
_cell_angle_alpha   90.00000000
_cell_angle_beta   90.00000000
_cell_angle_gamma   90.00000000
_symmetry_Int_Tables_number   27
_chemical_formula_moiety   'C9 H8 O4'
_chemical_formula_sum   'H32 C36 O16'
_cell_volume   1368.26802819
_cell_formula_units_Z   4
loop_
 _symmetry_equiv_pos_site_id
 _symmetry_equiv_pos_as_xyz
  1  'x, y, z'
  2  '-x, -y, z'
  3  '-x, y, z+1/2'
  4  'x, -y, z+1/2'
loop_
 _atom_site_type_symbol
 _atom_site_label
 _atom_site_symmetry_multiplicity
 _atom_site_fract_x
 _atom_site_fract_y
 _atom_site_fract_z
 _atom_site_occupancy
  H  H0  4  -0.12352578  0.29918267  0.51147324  1
  H  H1  4  0.04690151  0.15174121  0.24665201  1
  H  H2  4  0.28459805  0.05388862  0.24031524  1
  H  H3  4  0.33648482  0.35427822  0.70619820  1
  H  H4  4  0.34532595  0.14379298  0.03634940  1
  H  H5  4  0.39257617  0.30878022  0.84862461  1
  H  H6  4  0.40967214  0.32334933  0.23365356  1
  H  H7  4  0.41167757  -0.04992443  0.38554389  1
  C  C8  4  0.07592829  0.25976529  0.40237209  1
  C  C9  4  0.17968685  0.14878000  0.30996981  1
  C  C10  4  0.21510919  0.20053069  0.39659297  1
  C  C11  4  0.31255921  0.09430789  0.30752187  1
  C  C12  4  0.36747322  0.24974534  0.68059970  1
  C  C13  4  0.38571560  0.19715660  0.47750576  1
  C  C14  4  0.42580484  0.31302616  0.74675371  1
  C  C15  4  0.47981007  0.14356189  -0.02565527  1
  C  C16  4  0.48214402  0.09177992  0.38927553  1
  O  O17  4  -0.03802934  0.25916535  0.51050668  1
  O  O18  4  0.06684381  0.30355861  0.32254809  1
  O  O19  4  0.27769057  0.20267727  0.72520947  1
  O  O20  4  0.43112289  0.25222381  0.55440426  1
