###############################################################################################
#
# CIF file generated by modified CIFWriter class 
# in pymatgen (v2025.03.10) https://pymatgen.org/
#
###############################################################################################
data_PBE+MBD_tight_26d55c8aa163690
_symmetry_space_group_name_H-M   P4_2
_cell_length_a   13.34722462
_cell_length_b   13.34722462
_cell_length_c   5.66179147
_cell_angle_alpha   90.00000000
_cell_angle_beta   90.00000000
_cell_angle_gamma   90.00000000
_symmetry_Int_Tables_number   77
_chemical_formula_moiety   'C9 H8 O4'
_chemical_formula_sum   'H32 C36 O16'
_cell_volume   1008.63911861
_cell_formula_units_Z   4
loop_
 _symmetry_equiv_pos_site_id
 _symmetry_equiv_pos_as_xyz
  1  'x, y, z'
  2  '-y, x, z+1/2'
  3  '-x, -y, z'
  4  'y, -x, z+1/2'
loop_
 _atom_site_type_symbol
 _atom_site_label
 _atom_site_symmetry_multiplicity
 _atom_site_fract_x
 _atom_site_fract_y
 _atom_site_fract_z
 _atom_site_occupancy
  H  H0  4  0.02713697  0.19509295  1.13841347  1
  H  H1  4  0.03283031  0.31776843  0.80731688  1
  H  H2  4  0.06763533  0.69397726  0.39704239  1
  H  H3  4  0.07117830  0.83488507  0.68644017  1
  H  H4  4  0.11925861  0.51177777  -0.18297725  1
  H  H5  4  0.23247394  0.55654988  -0.30449035  1
  H  H6  4  0.23370678  0.44719232  -0.11899631  1
  H  H7  4  0.25638681  0.43688398  0.32412272  1
  C  C8  4  0.08922316  0.19388255  1.01395395  1
  C  C9  4  0.09196438  0.26222509  0.82881252  1
  C  C10  4  0.12299508  0.75382550  0.38171102  1
  C  C11  4  0.12473437  0.83332580  0.54135749  1
  C  C12  4  0.17036349  0.34359022  0.48287383  1
  C  C13  4  0.17149412  0.26300899  0.66674157  1
  C  C14  4  0.19141957  0.75261875  0.19639476  1
  C  C15  4  0.19973283  0.52063396  -0.14811653  1
  C  C16  4  0.21508176  0.58530979  0.06294621  1
  O  O17  4  0.09292650  0.38425028  0.41815151  1
  O  O18  4  0.18115358  0.67944476  0.02139716  1
  O  O19  4  0.25280813  0.56015674  0.25030188  1
  O  O20  4  0.26180565  0.37110826  0.40988758  1
