###############################################################################################
#
# CIF file generated by modified CIFWriter class 
# in pymatgen (v2025.03.10) https://pymatgen.org/
#
###############################################################################################
data_PBE+MBD_tight_291486ccc9495c3
_symmetry_space_group_name_H-M   Pnc2
_cell_length_a   5.82238923
_cell_length_b   22.15694576
_cell_length_c   7.27674988
_cell_angle_alpha   90.00000000
_cell_angle_beta   90.00000000
_cell_angle_gamma   90.00000000
_symmetry_Int_Tables_number   30
_chemical_formula_moiety   'C9 H8 O4'
_chemical_formula_sum   'H32 C36 O16'
_cell_volume   938.74703275
_cell_formula_units_Z   4
loop_
 _symmetry_equiv_pos_site_id
 _symmetry_equiv_pos_as_xyz
  1  'x, y, z'
  2  '-x, -y, z'
  3  '-x, y+1/2, z+1/2'
  4  'x, -y+1/2, z+1/2'
loop_
 _atom_site_type_symbol
 _atom_site_label
 _atom_site_symmetry_multiplicity
 _atom_site_fract_x
 _atom_site_fract_y
 _atom_site_fract_z
 _atom_site_occupancy
  H  H0  4  -0.78446957  0.16262416  0.63369487  1
  H  H1  4  -0.77872115  0.22517123  0.16278082  1
  H  H2  4  -0.43633029  0.17494561  0.30163192  1
  H  H3  4  -0.30483355  0.00949539  0.69296080  1
  H  H4  4  -0.11578691  0.23782051  0.42513374  1
  H  H5  4  0.09491487  0.06107270  1.25236667  1
  H  H6  4  0.15395094  0.04266635  1.01875478  1
  H  H7  4  0.25040097  0.11226549  1.10500310  1
  C  C8  4  -0.63942231  0.18567752  0.69681518  1
  C  C9  4  -0.63557540  0.24803547  0.71427731  1
  C  C10  4  -0.47123994  0.08406030  0.71878226  1
  C  C11  4  -0.45533580  0.14975162  0.75679051  1
  C  C12  4  -0.44430735  0.22391347  0.29169963  1
  C  C13  4  -0.26954278  0.17864673  0.84425735  1
  C  C14  4  -0.26289531  0.24134770  0.85777522  1
  C  C15  4  -0.11523864  0.10585871  1.05518041  1
  C  C16  4  0.10983529  0.07955732  1.11339533  1
  O  O17  4  -0.66015079  0.06004374  0.68795002  1
  O  O18  4  -0.30242905  0.09298304  1.11612913  1
  O  O19  4  -0.27435918  0.05467214  0.71444213  1
  O  O20  4  -0.08222911  0.14846012  0.91872174  1
