###############################################################################################
#
# CIF file generated by modified CIFWriter class 
# in pymatgen (v2025.03.10) https://pymatgen.org/
#
###############################################################################################
data_PBE+MBD_tight_2a1a0b81c436038
_symmetry_space_group_name_H-M   Pca2_1
_cell_length_a   7.65610199
_cell_length_b   10.34910349
_cell_length_c   11.12434225
_cell_angle_alpha   90.00000000
_cell_angle_beta   90.00000000
_cell_angle_gamma   90.00000000
_symmetry_Int_Tables_number   29
_chemical_formula_moiety   'C9 H8 O4'
_chemical_formula_sum   'H32 C36 O16'
_cell_volume   881.42381825
_cell_formula_units_Z   4
loop_
 _symmetry_equiv_pos_site_id
 _symmetry_equiv_pos_as_xyz
  1  'x, y, z'
  2  '-x, -y, z+1/2'
  3  '-x+1/2, y, z+1/2'
  4  'x+1/2, -y, z'
loop_
 _atom_site_type_symbol
 _atom_site_label
 _atom_site_symmetry_multiplicity
 _atom_site_fract_x
 _atom_site_fract_y
 _atom_site_fract_z
 _atom_site_occupancy
  H  H0  4  -0.19109595  0.48184951  0.05629172  1
  H  H1  4  -0.18264221  0.68838987  0.40164601  1
  H  H2  4  -0.04260769  0.88151810  0.49342005  1
  H  H3  4  0.00127394  0.65048107  -0.17106141  1
  H  H4  4  0.09954470  0.80376177  -0.19222937  1
  H  H5  4  0.12067574  1.03674118  0.36340359  1
  H  H6  4  0.14593696  0.99354335  0.14340668  1
  H  H7  4  0.23272529  0.66072562  -0.18725836  1
  C  C8  4  -0.18484965  0.60920073  0.18051646  1
  C  C9  4  -0.11036586  0.75672092  0.34622573  1
  C  C10  4  -0.09711808  0.73038982  0.22265836  1
  C  C11  4  -0.03287899  0.86518517  0.39695109  1
  C  C12  4  -0.00293739  0.81844691  0.15146587  1
  C  C13  4  0.05902796  0.95167084  0.32449465  1
  C  C14  4  0.07334335  0.92804956  0.20159429  1
  C  C15  4  0.11778020  0.70888410  -0.15024466  1
  C  C16  4  0.13265472  0.72235654  -0.01790988  1
  O  O17  4  -0.13867686  0.56946995  0.07067056  1
  O  O18  4  0.00861053  0.80530732  0.02667145  1
  O  O19  4  0.21050349  0.44860013  0.24390749  1
  O  O20  4  0.23807620  0.67032406  0.04834818  1
