###############################################################################################
#
# CIF file generated by modified CIFWriter class 
# in pymatgen (v2025.03.10) https://pymatgen.org/
#
###############################################################################################
data_PBE+MBD_tight_2a9e9e8d240f542
_symmetry_space_group_name_H-M   P2/c
_cell_length_a   10.33986015
_cell_length_b   6.09951701
_cell_length_c   14.01862998
_cell_angle_alpha   90.00000000
_cell_angle_beta   88.83212065
_cell_angle_gamma   90.00000000
_symmetry_Int_Tables_number   13
_chemical_formula_moiety   'C9 H8 O4'
_chemical_formula_sum   'H32 C36 O16'
_cell_volume   883.94543502
_cell_formula_units_Z   4
loop_
 _symmetry_equiv_pos_site_id
 _symmetry_equiv_pos_as_xyz
  1  'x, y, z'
  2  '-x, -y, -z'
  3  '-x, y, -z+1/2'
  4  'x, -y, z+1/2'
loop_
 _atom_site_type_symbol
 _atom_site_label
 _atom_site_symmetry_multiplicity
 _atom_site_fract_x
 _atom_site_fract_y
 _atom_site_fract_z
 _atom_site_occupancy
  H  H0  4  -0.08022505  0.15961502  0.66383338  1
  H  H1  4  -0.04204458  0.84170837  0.04031525  1
  H  H2  4  0.07130521  0.04757632  0.62312865  1
  H  H3  4  0.17180380  0.61658398  0.79649846  1
  H  H4  4  0.28429320  0.02680850  0.32935195  1
  H  H5  4  0.34570741  0.64615574  -0.09362435  1
  H  H6  4  0.40917426  1.15701590  0.69925218  1
  H  H7  4  0.42524095  0.98603428  0.53986187  1
  C  C8  4  -0.00050315  0.17596965  0.61131389  1
  C  C9  4  0.05467900  0.59800555  0.11820635  1
  C  C10  4  0.23218211  0.69551112  0.74185250  1
  C  C11  4  0.24472548  0.40192693  0.15227765  1
  C  C12  4  0.29275005  0.10489774  0.25950001  1
  C  C13  4  0.31631483  0.30117687  0.07829580  1
  C  C14  4  0.33655930  0.38936101  -0.01987164  1
  C  C15  4  0.36325523  0.00043291  0.18673671  1
  C  C16  4  0.37312841  0.09687683  0.09738428  1
  O  O17  4  -0.00454973  0.57188027  0.60782990  1
  O  O18  4  0.18380835  0.39664000  0.63888012  1
  O  O19  4  0.33082255  0.38981107  0.47392422  1
  O  O20  4  0.36072768  0.72628740  0.41085989  1
