###############################################################################################
#
# CIF file generated by modified CIFWriter class 
# in pymatgen (v2025.03.10) https://pymatgen.org/
#
###############################################################################################
data_PBE+MBD_tight_2df40f5d6dcbcd9
_symmetry_space_group_name_H-M   Pna2_1
_cell_length_a   9.28937495
_cell_length_b   10.93014533
_cell_length_c   9.29743600
_cell_angle_alpha   90.00000000
_cell_angle_beta   90.00000000
_cell_angle_gamma   90.00000000
_symmetry_Int_Tables_number   33
_chemical_formula_moiety   'C9 H8 O4'
_chemical_formula_sum   'H32 C36 O16'
_cell_volume   944.00789572
_cell_formula_units_Z   4
loop_
 _symmetry_equiv_pos_site_id
 _symmetry_equiv_pos_as_xyz
  1  'x, y, z'
  2  '-x, -y, z+1/2'
  3  '-x+1/2, y+1/2, z+1/2'
  4  'x+1/2, -y+1/2, z'
loop_
 _atom_site_type_symbol
 _atom_site_label
 _atom_site_symmetry_multiplicity
 _atom_site_fract_x
 _atom_site_fract_y
 _atom_site_fract_z
 _atom_site_occupancy
  H  H0  4  -0.10891770  0.86993517  0.82361304  1
  H  H1  4  -0.05618842  0.67893129  0.68490130  1
  H  H2  4  -0.01035199  0.74871663  0.13747150  1
  H  H3  4  0.03137297  1.06057070  0.77075634  1
  H  H4  4  0.05258789  0.44864297  -0.19234035  1
  H  H5  4  0.05719672  0.71347070  -0.03846475  1
  H  H6  4  0.12899055  0.68296621  0.49118521  1
  H  H7  4  0.16512558  0.80033795  0.08075911  1
  C  C8  4  -0.02728072  0.86982314  0.73936834  1
  C  C9  4  0.00173339  0.76330341  0.66154350  1
  C  C10  4  0.04900079  0.97670380  0.70991729  1
  C  C11  4  0.08593556  0.72617392  0.07524914  1
  C  C12  4  0.10499817  0.76495747  0.55337510  1
  C  C13  4  0.14970423  0.60990115  0.12860549  1
  C  C14  4  0.15217732  0.97694885  0.60154033  1
  C  C15  4  0.18236078  0.87168121  0.51991794  1
  C  C16  4  0.20849550  0.36229006  -0.09788167  1
  O  O17  4  0.09308746  0.53693969  0.21085246  1
  O  O18  4  0.12908011  0.46287772  -0.11695983  1
  O  O19  4  0.19298259  0.26915998  -0.16966586  1
  O  O20  4  0.21838182  1.08925256  0.57159506  1
