###############################################################################################
#
# CIF file generated by modified CIFWriter class 
# in pymatgen (v2025.03.10) https://pymatgen.org/
#
###############################################################################################
data_PBE+MBD_tight_2e9c9528d8b2a04
_symmetry_space_group_name_H-M   Pnn2
_cell_length_a   13.21589333
_cell_length_b   14.84236542
_cell_length_c   5.33260984
_cell_angle_alpha   90.00000000
_cell_angle_beta   90.00000000
_cell_angle_gamma   90.00000000
_symmetry_Int_Tables_number   34
_chemical_formula_moiety   'C9 H8 O4'
_chemical_formula_sum   'H32 C36 O16'
_cell_volume   1046.01871321
_cell_formula_units_Z   4
loop_
 _symmetry_equiv_pos_site_id
 _symmetry_equiv_pos_as_xyz
  1  'x, y, z'
  2  '-x, -y, z'
  3  '-x+1/2, y+1/2, z+1/2'
  4  'x+1/2, -y+1/2, z+1/2'
loop_
 _atom_site_type_symbol
 _atom_site_label
 _atom_site_symmetry_multiplicity
 _atom_site_fract_x
 _atom_site_fract_y
 _atom_site_fract_z
 _atom_site_occupancy
  H  H0  4  -0.05218013  0.76633733  0.53099163  1
  H  H1  4  0.00427082  0.92502921  0.54133955  1
  H  H2  4  0.03725024  0.08090282  0.04639718  1
  H  H3  4  0.08478238  0.49070444  0.47556326  1
  H  H4  4  0.11919035  -0.01151625  0.10873458  1
  H  H5  4  0.12296251  0.04419116  -0.19031648  1
  H  H6  4  0.18640524  0.33695467  -0.04426978  1
  H  H7  4  0.18939456  0.96195454  0.50617004  1
  C  C8  4  0.02800190  0.78259917  0.51642106  1
  C  C9  4  0.05522621  0.61830013  0.48398164  1
  C  C10  4  0.06019392  0.87166647  0.52218584  1
  C  C11  4  0.09737811  0.71135091  0.49035688  1
  C  C12  4  0.11294993  0.05312821  0.01137521  1
  C  C13  4  0.16307892  0.89227269  0.50253984  1
  C  C14  4  0.18937964  0.11761848  0.11367803  1
  C  C15  4  0.20064525  0.73380242  0.46950805  1
  C  C16  4  0.23304247  0.82303300  0.47534283  1
  O  O17  4  -0.03777785  0.60571106  0.49414367  1
  O  O18  4  0.12121762  0.55192785  0.46783856  1
  O  O19  4  0.21432284  0.12569963  0.33085201  1
  O  O20  4  0.22547714  0.17000735  -0.07854160  1
