###############################################################################################
#
# CIF file generated by modified CIFWriter class 
# in pymatgen (v2025.03.10) https://pymatgen.org/
#
###############################################################################################
data_PBE+MBD_tight_35561788c86a0af
_symmetry_space_group_name_H-M   P4_2
_cell_length_a   15.67823140
_cell_length_b   15.67823140
_cell_length_c   5.11856568
_cell_angle_alpha   90.00000000
_cell_angle_beta   90.00000000
_cell_angle_gamma   90.00000000
_symmetry_Int_Tables_number   77
_chemical_formula_moiety   'C9 H8 O4'
_chemical_formula_sum   'H32 C36 O16'
_cell_volume   1258.17896501
_cell_formula_units_Z   4
loop_
 _symmetry_equiv_pos_site_id
 _symmetry_equiv_pos_as_xyz
  1  'x, y, z'
  2  '-y, x, z+1/2'
  3  '-x, -y, z'
  4  'y, -x, z+1/2'
loop_
 _atom_site_type_symbol
 _atom_site_label
 _atom_site_symmetry_multiplicity
 _atom_site_fract_x
 _atom_site_fract_y
 _atom_site_fract_z
 _atom_site_occupancy
  H  H0  4  0.05534948  0.56888906  0.09119765  1
  H  H1  4  0.05988243  0.45292292  -0.24471019  1
  H  H2  4  0.11842894  0.74326783  0.64747295  1
  H  H3  4  0.18945591  0.35877201  -0.27003368  1
  H  H4  4  0.19556615  0.21167408  1.06412908  1
  H  H5  4  0.21794004  0.71658922  0.78771813  1
  H  H6  4  0.30929979  0.38364925  0.02608213  1
  H  H7  4  0.37962970  0.56674306  0.67800454  1
  C  C8  4  0.11066373  0.52726213  0.07333889  1
  C  C9  4  0.11335338  0.46219588  -0.11143608  1
  C  C10  4  0.17923052  0.54072022  0.24094040  1
  C  C11  4  0.18507569  0.40996766  -0.12691029  1
  C  C12  4  0.18728085  0.74081197  0.60941503  1
  C  C13  4  0.20575499  0.68174908  0.38722036  1
  C  C14  4  0.25288420  0.48937285  0.22846923  1
  C  C15  4  0.25326616  0.42400942  0.04104714  1
  C  C16  4  0.33062596  0.49842361  0.39608807  1
  O  O17  4  0.16721708  0.60438295  0.42782573  1
  O  O18  4  0.24819333  0.69764176  0.19530414  1
  O  O19  4  0.32477719  0.55870720  0.57685844  1
  O  O20  4  0.39455533  0.45360964  0.37091718  1
