###############################################################################################
#
# CIF file generated by modified CIFWriter class 
# in pymatgen (v2025.03.10) https://pymatgen.org/
#
###############################################################################################
data_PBE+MBD_tight_366d524b33cfd6b
_symmetry_space_group_name_H-M   Pnc2
_cell_length_a   8.12119859
_cell_length_b   13.07072208
_cell_length_c   8.33758645
_cell_angle_alpha   90.00000000
_cell_angle_beta   90.00000000
_cell_angle_gamma   90.00000000
_symmetry_Int_Tables_number   30
_chemical_formula_moiety   'C9 H8 O4'
_chemical_formula_sum   'H32 C36 O16'
_cell_volume   885.03421491
_cell_formula_units_Z   4
loop_
 _symmetry_equiv_pos_site_id
 _symmetry_equiv_pos_as_xyz
  1  'x, y, z'
  2  '-x, -y, z'
  3  '-x, y+1/2, z+1/2'
  4  'x, -y+1/2, z+1/2'
loop_
 _atom_site_type_symbol
 _atom_site_label
 _atom_site_symmetry_multiplicity
 _atom_site_fract_x
 _atom_site_fract_y
 _atom_site_fract_z
 _atom_site_occupancy
  H  H0  4  -0.31001925  0.10818895  0.39883195  1
  H  H1  4  -0.16126301  0.14967422  0.25083636  1
  H  H2  4  -0.15689980  0.02298277  0.32522438  1
  H  H3  4  -0.08266563  0.07097775  -0.03443669  1
  H  H4  4  0.26614062  0.03900334  0.58321751  1
  H  H5  4  0.38145510  0.73525574  0.73339988  1
  H  H6  4  0.43648994  0.09738718  0.12390977  1
  H  H7  4  0.47052354  0.58469607  0.22205521  1
  C  C8  4  -0.18225265  0.10298638  0.35789145  1
  C  C9  4  -0.06921959  0.13491830  0.49093439  1
  C  C10  4  0.14275903  0.11431469  -0.00546022  1
  C  C11  4  0.20802012  0.19500331  0.52638983  1
  C  C12  4  0.25024802  0.20125888  0.04242160  1
  C  C13  4  0.30588163  0.11829535  0.59228401  1
  C  C14  4  0.40117962  0.17766402  0.11585057  1
  C  C15  4  0.45235694  0.14393303  0.66903113  1
  C  C16  4  0.49811385  0.74592201  0.17733200  1
  O  O17  4  -0.09794776  0.13248485  0.63316266  1
  O  O18  4  -0.01557367  0.13590216  -0.01340151  1
  O  O19  4  0.07831635  0.16626932  0.42681766  1
  O  O20  4  0.19984706  0.02716524  -0.02641352  1
