###############################################################################################
#
# CIF file generated by modified CIFWriter class 
# in pymatgen (v2025.03.10) https://pymatgen.org/
#
###############################################################################################
data_PBE+MBD_tight_38c29991eb6e45f
_symmetry_space_group_name_H-M   P4_2
_cell_length_a   11.76143225
_cell_length_b   11.76143225
_cell_length_c   7.10125889
_cell_angle_alpha   90.00000000
_cell_angle_beta   90.00000000
_cell_angle_gamma   90.00000000
_symmetry_Int_Tables_number   77
_chemical_formula_moiety   'C9 H8 O4'
_chemical_formula_sum   'H32 C36 O16'
_cell_volume   982.32629198
_cell_formula_units_Z   4
loop_
 _symmetry_equiv_pos_site_id
 _symmetry_equiv_pos_as_xyz
  1  'x, y, z'
  2  '-y, x, z+1/2'
  3  '-x, -y, z'
  4  'y, -x, z+1/2'
loop_
 _atom_site_type_symbol
 _atom_site_label
 _atom_site_symmetry_multiplicity
 _atom_site_fract_x
 _atom_site_fract_y
 _atom_site_fract_z
 _atom_site_occupancy
  H  H0  4  -0.13030293  0.25937256  0.31737196  1
  H  H1  4  -0.08426615  0.15324783  0.47581275  1
  H  H2  4  -0.06784215  0.29611250  0.54193019  1
  H  H3  4  0.07835511  0.52681594  0.88449485  1
  H  H4  4  0.07996268  0.73311768  0.96646581  1
  H  H5  4  0.10388794  0.55026859  0.33377079  1
  H  H6  4  0.25714558  0.43231053  0.77441899  1
  H  H7  4  0.43304661  0.54632405  0.74547832  1
  C  C8  4  -0.06447862  0.23836931  0.42091834  1
  C  C9  4  0.05029704  0.23804913  0.33032422  1
  C  C10  4  0.15647062  0.57572430  0.86987180  1
  C  C11  4  0.15665139  0.69097876  0.91549217  1
  C  C12  4  0.24258147  0.47169132  0.32454748  1
  C  C13  4  0.24668539  0.25677726  0.40028697  1
  C  C14  4  0.25575023  0.52261054  0.80829772  1
  C  C15  4  0.29797004  0.35837084  0.33935089  1
  C  C16  4  0.35482107  0.58594478  0.79328853  1
  O  O17  4  0.07017699  0.22454962  0.16417810  1
  O  O18  4  0.12728415  0.47066225  0.34308995  1
  O  O19  4  0.13401707  0.25359449  0.46260537  1
  O  O20  4  0.29442777  0.55993872  0.29823727  1
