###############################################################################################
#
# CIF file generated by modified CIFWriter class 
# in pymatgen (v2025.03.10) https://pymatgen.org/
#
###############################################################################################
data_PBE+MBD_tight_38da4111a812b68
_symmetry_space_group_name_H-M   Pcc2
_cell_length_a   9.85082583
_cell_length_b   14.60837063
_cell_length_c   7.57103862
_cell_angle_alpha   90.00000000
_cell_angle_beta   90.00000000
_cell_angle_gamma   90.00000000
_symmetry_Int_Tables_number   27
_chemical_formula_moiety   'C9 H8 O4'
_chemical_formula_sum   'H32 C36 O16'
_cell_volume   1089.50663932
_cell_formula_units_Z   4
loop_
 _symmetry_equiv_pos_site_id
 _symmetry_equiv_pos_as_xyz
  1  'x, y, z'
  2  '-x, -y, z'
  3  '-x, y, z+1/2'
  4  'x, -y, z+1/2'
loop_
 _atom_site_type_symbol
 _atom_site_label
 _atom_site_symmetry_multiplicity
 _atom_site_fract_x
 _atom_site_fract_y
 _atom_site_fract_z
 _atom_site_occupancy
  H  H0  4  -0.08759991  0.17389159  0.89265879  1
  H  H1  4  -0.05283656  0.12382639  1.10550699  1
  H  H2  4  -0.04348967  0.42780113  0.69451907  1
  H  H3  4  0.00752519  0.07188721  0.90679618  1
  H  H4  4  0.38335164  0.37993242  0.17506633  1
  H  H5  4  0.38390085  0.15073046  0.86558561  1
  H  H6  4  0.39267262  0.22078614  0.28828866  1
  H  H7  4  0.40039502  0.46806991  0.63796263  1
  C  C8  4  -0.01306110  0.13725428  0.97366699  1
  C  C9  4  0.11742235  0.18962009  0.98580886  1
  C  C10  4  0.15185411  0.42069763  0.70623109  1
  C  C11  4  0.26988078  0.27008240  0.79349048  1
  C  C12  4  0.27246816  0.36068352  0.73055508  1
  C  C13  4  0.38957652  0.22046014  0.81539314  1
  C  C14  4  0.39971273  0.39856316  0.68912294  1
  C  C15  4  0.48078386  0.34945209  0.20958696  1
  C  C16  4  0.48601639  0.25990640  0.27364618  1
  O  O17  4  0.03240285  0.38014831  0.70982385  1
  O  O18  4  0.14634711  0.22700527  0.82347176  1
  O  O19  4  0.16639940  0.49548134  0.18339742  1
  O  O20  4  0.18972590  0.19789152  1.11406044  1
