###############################################################################################
#
# CIF file generated by modified CIFWriter class 
# in pymatgen (v2025.03.10) https://pymatgen.org/
#
###############################################################################################
data_PBE+MBD_tight_3be033b282d0636
_symmetry_space_group_name_H-M   P2_1/c
_cell_length_a   7.13402352
_cell_length_b   9.12859145
_cell_length_c   13.82729517
_cell_angle_alpha   90.00000000
_cell_angle_beta   92.26843044
_cell_angle_gamma   90.00000000
_symmetry_Int_Tables_number   14
_chemical_formula_moiety   'C9 H8 O4'
_chemical_formula_sum   'H32 C36 O16'
_cell_volume   899.77739046
_cell_formula_units_Z   4
loop_
 _symmetry_equiv_pos_site_id
 _symmetry_equiv_pos_as_xyz
  1  'x, y, z'
  2  '-x, -y, -z'
  3  '-x, y+1/2, -z+1/2'
  4  'x, -y+1/2, z+1/2'
loop_
 _atom_site_type_symbol
 _atom_site_label
 _atom_site_symmetry_multiplicity
 _atom_site_fract_x
 _atom_site_fract_y
 _atom_site_fract_z
 _atom_site_occupancy
  H  H0  4  -0.42353969  0.77942274  0.14177154  1
  H  H1  4  -0.32674298  0.58595882  0.26231069  1
  H  H2  4  -0.21163760  0.84244243  0.00853108  1
  H  H3  4  -0.01461322  1.03143288  0.75243811  1
  H  H4  4  0.26092434  0.58329620  0.34730521  1
  H  H5  4  0.38610687  0.75221029  -0.12994415  1
  H  H6  4  0.47571277  0.57595898  0.41683348  1
  H  H7  4  0.48675494  0.99261687  0.57742965  1
  C  C8  4  -0.28928592  0.72377283  0.13695024  1
  C  C9  4  -0.23469203  0.88311036  0.70476685  1
  C  C10  4  -0.17104474  0.73906359  0.56302962  1
  C  C11  4  -0.05983954  0.94872335  0.69967492  1
  C  C12  4  0.00381111  0.80541530  0.55826169  1
  C  C13  4  0.06436008  0.58977927  0.12731536  1
  C  C14  4  0.24398518  0.83835325  -0.00815164  1
  C  C15  4  0.25179543  0.98045713  0.63342592  1
  C  C16  4  0.34960005  0.85829182  -0.09843670  1
  O  O17  4  0.11112263  0.73058243  -0.02044162  1
  O  O18  4  0.26594876  0.90709597  0.06672148  1
  O  O19  4  0.30698779  0.44199745  0.20060672  1
  O  O20  4  0.36419529  0.94993312  0.55914831  1
