###############################################################################################
#
# CIF file generated by modified CIFWriter class 
# in pymatgen (v2025.03.10) https://pymatgen.org/
#
###############################################################################################
data_PBE+MBD_tight_3dd8b0112fa42be
_symmetry_space_group_name_H-M   Pca2_1
_cell_length_a   13.29515723
_cell_length_b   9.50484109
_cell_length_c   6.85181015
_cell_angle_alpha   90.00000000
_cell_angle_beta   90.00000000
_cell_angle_gamma   90.00000000
_symmetry_Int_Tables_number   29
_chemical_formula_moiety   'C9 H8 O4'
_chemical_formula_sum   'H32 C36 O16'
_cell_volume   865.85198823
_cell_formula_units_Z   4
loop_
 _symmetry_equiv_pos_site_id
 _symmetry_equiv_pos_as_xyz
  1  'x, y, z'
  2  '-x, -y, z+1/2'
  3  '-x+1/2, y, z+1/2'
  4  'x+1/2, -y, z'
loop_
 _atom_site_type_symbol
 _atom_site_label
 _atom_site_symmetry_multiplicity
 _atom_site_fract_x
 _atom_site_fract_y
 _atom_site_fract_z
 _atom_site_occupancy
  H  H0  4  -0.05305630  0.50717937  0.01248155  1
  H  H1  4  -0.02191174  0.96613614  -0.04069378  1
  H  H2  4  0.05747351  0.29942426  0.05846956  1
  H  H3  4  0.19012115  1.08674829  0.12015842  1
  H  H4  4  0.19419741  1.11989845  0.37614099  1
  H  H5  4  0.20306856  0.57658130  0.74384693  1
  H  H6  4  0.20364727  1.03040660  0.75260256  1
  H  H7  4  0.23549272  0.33544309  0.17686644  1
  C  C8  4  -0.01256882  0.77525801  0.05662821  1
  C  C9  4  0.02415057  0.52043441  0.06252127  1
  C  C10  4  0.05918368  0.65788030  0.09388618  1
  C  C11  4  0.08637807  0.40436936  0.08972817  1
  C  C12  4  0.15848964  0.67466842  0.15964572  1
  C  C13  4  0.16176120  0.90880430  0.29256816  1
  C  C14  4  0.18477840  0.42392367  0.15545302  1
  C  C15  4  0.21476408  1.04492524  0.26186773  1
  C  C16  4  0.22047361  0.55918338  0.19209511  1
  O  O17  4  -0.10251153  0.76512836  0.09168744  1
  O  O18  4  0.02989372  0.88977964  -0.02268754  1
  O  O19  4  0.08868315  0.88950174  0.39799225  1
  O  O20  4  0.20402052  0.80601665  0.18277765  1
