###############################################################################################
#
# CIF file generated by modified CIFWriter class 
# in pymatgen (v2025.03.10) https://pymatgen.org/
#
###############################################################################################
data_PBE+MBD_tight_3e1f121a7c446b3
_symmetry_space_group_name_H-M   P4_2
_cell_length_a   13.87786518
_cell_length_b   13.87786518
_cell_length_c   4.84909991
_cell_angle_alpha   90.00000000
_cell_angle_beta   90.00000000
_cell_angle_gamma   90.00000000
_symmetry_Int_Tables_number   77
_chemical_formula_moiety   'C9 H8 O4'
_chemical_formula_sum   'H32 C36 O16'
_cell_volume   933.91308494
_cell_formula_units_Z   4
loop_
 _symmetry_equiv_pos_site_id
 _symmetry_equiv_pos_as_xyz
  1  'x, y, z'
  2  '-y, x, z+1/2'
  3  '-x, -y, z'
  4  'y, -x, z+1/2'
loop_
 _atom_site_type_symbol
 _atom_site_label
 _atom_site_symmetry_multiplicity
 _atom_site_fract_x
 _atom_site_fract_y
 _atom_site_fract_z
 _atom_site_occupancy
  H  H0  4  0.00062566  0.21514567  0.32241536  1
  H  H1  4  0.05011764  0.73621982  0.83584403  1
  H  H2  4  0.05651544  0.91605387  0.86271473  1
  H  H3  4  0.07526888  0.52529047  0.20844688  1
  H  H4  4  0.20171930  0.64267339  0.77658328  1
  H  H5  4  0.31894915  0.53878430  0.04705928  1
  H  H6  4  0.34619365  0.59329804  0.37674010  1
  H  H7  4  0.42402555  0.50485343  0.22813536  1
  C  C8  4  0.07243836  0.38643501  0.24494134  1
  C  C9  4  0.07887483  0.21064835  0.31340884  1
  C  C10  4  0.11869252  0.77394049  0.82120908  1
  C  C11  4  0.12249673  0.87442784  0.83553578  1
  C  C12  4  0.13029633  0.29707960  0.27671337  1
  C  C13  4  0.20313150  0.72111926  0.78903343  1
  C  C14  4  0.23179083  0.29160523  0.26859057  1
  C  C15  4  0.29379618  0.44824494  0.39227284  1
  C  C16  4  0.34861547  0.52736888  0.25422938  1
  O  O17  4  -0.01689728  0.38410298  0.27295264  1
  O  O18  4  0.11953594  0.46577906  0.18387380  1
  O  O19  4  0.25971345  0.44818842  0.62136109  1
  O  O20  4  0.29003942  0.37006224  0.21595781  1
