###############################################################################################
#
# CIF file generated by modified CIFWriter class 
# in pymatgen (v2025.03.10) https://pymatgen.org/
#
###############################################################################################
data_PBE+MBD_tight_3ecf9bcac3b26ac
_symmetry_space_group_name_H-M   P2_1/c
_cell_length_a   5.65063943
_cell_length_b   11.49059681
_cell_length_c   14.74038078
_cell_angle_alpha   90.00000000
_cell_angle_beta   115.84427815
_cell_angle_gamma   90.00000000
_symmetry_Int_Tables_number   14
_chemical_formula_moiety   'C9 H8 O4'
_chemical_formula_sum   'H32 C36 O16'
_cell_volume   861.35619764
_cell_formula_units_Z   4
loop_
 _symmetry_equiv_pos_site_id
 _symmetry_equiv_pos_as_xyz
  1  'x, y, z'
  2  '-x, -y, -z'
  3  '-x, y+1/2, -z+1/2'
  4  'x, -y+1/2, z+1/2'
loop_
 _atom_site_type_symbol
 _atom_site_label
 _atom_site_symmetry_multiplicity
 _atom_site_fract_x
 _atom_site_fract_y
 _atom_site_fract_z
 _atom_site_occupancy
  H  H0  4  -0.11926848  1.09680952  0.72334075  1
  H  H1  4  0.06844352  0.58683946  0.54526348  1
  H  H2  4  0.12828285  0.73357186  1.14869525  1
  H  H3  4  0.18166286  0.36231775  0.33031454  1
  H  H4  4  0.18973132  0.43347879  0.22529330  1
  H  H5  4  0.30586374  0.33894781  0.68794017  1
  H  H6  4  0.38904277  0.56718208  1.12946590  1
  H  H7  4  0.41678243  0.08406600  0.49217914  1
  C  C8  4  0.08358212  0.95533449  0.81703980  1
  C  C9  4  0.08390688  0.42842395  0.27253874  1
  C  C10  4  0.18097133  0.66026739  0.53831933  1
  C  C11  4  0.21496791  0.73930994  1.09573363  1
  C  C12  4  0.28731560  0.65327551  0.46931312  1
  C  C13  4  0.35926175  0.64621172  1.08503402  1
  C  C14  4  0.43133361  0.75379567  0.95650067  1
  C  C15  4  0.45057187  0.25177351  0.11611554  1
  C  C16  4  0.46618110  0.84547463  0.51650223  1
  O  O17  4  -0.05146329  0.87214712  0.77212589  1
  O  O18  4  0.25231831  0.54815817  0.41716487  1
  O  O19  4  0.39346700  0.34422952  0.14273179  1
  O  O20  4  0.40865383  0.35187782  0.64862318  1
