###############################################################################################
#
# CIF file generated by modified CIFWriter class 
# in pymatgen (v2025.03.10) https://pymatgen.org/
#
###############################################################################################
data_PBE+MBD_tight_43059c728e3549e
_symmetry_space_group_name_H-M   P2_12_12
_cell_length_a   14.67594351
_cell_length_b   7.60771247
_cell_length_c   7.94550845
_cell_angle_alpha   90.00000000
_cell_angle_beta   90.00000000
_cell_angle_gamma   90.00000000
_symmetry_Int_Tables_number   18
_chemical_formula_moiety   'C9 H8 O4'
_chemical_formula_sum   'H32 C36 O16'
_cell_volume   887.11886671
_cell_formula_units_Z   4
loop_
 _symmetry_equiv_pos_site_id
 _symmetry_equiv_pos_as_xyz
  1  'x, y, z'
  2  '-x, -y, z'
  3  '-x+1/2, y+1/2, -z'
  4  'x+1/2, -y+1/2, -z'
loop_
 _atom_site_type_symbol
 _atom_site_label
 _atom_site_symmetry_multiplicity
 _atom_site_fract_x
 _atom_site_fract_y
 _atom_site_fract_z
 _atom_site_occupancy
  H  H0  4  -0.12641760  0.68383834  -0.04963847  1
  H  H1  4  -0.11113555  0.66700397  0.26080965  1
  H  H2  4  0.00787871  0.77316712  -0.22420229  1
  H  H3  4  0.03955048  0.72186708  0.39620371  1
  H  H4  4  0.14849233  0.44959213  0.70293377  1
  H  H5  4  0.17645814  0.28723805  0.54845190  1
  H  H6  4  0.18166205  0.51778126  0.49740519  1
  H  H7  4  0.24153178  0.55125723  1.13928180  1
  C  C8  4  -0.06100552  0.71096084  0.00927019  1
  C  C9  4  -0.05242646  0.70038306  0.18362688  1
  C  C10  4  0.01345217  0.76001841  -0.08795927  1
  C  C11  4  0.03115850  0.73320778  0.26043006  1
  C  C12  4  0.09741759  0.80029695  -0.01283725  1
  C  C13  4  0.10544600  0.78116253  0.16226827  1
  C  C14  4  0.16963320  0.87052652  -0.12560952  1
  C  C15  4  0.19286454  0.41938139  0.59540889  1
  C  C16  4  0.21002839  0.92767556  0.34904134  1
  O  O17  4  0.15263117  1.03250236  0.38933666  1
  O  O18  4  0.17707358  0.83168753  -0.27371013  1
  O  O19  4  0.19210117  0.79177501  0.23501944  1
  O  O20  4  0.22328339  0.99262945  -0.05036393  1
