###############################################################################################
#
# CIF file generated by modified CIFWriter class 
# in pymatgen (v2025.03.10) https://pymatgen.org/
#
###############################################################################################
data_PBE+MBD_tight_477c3c797f3bff4
_symmetry_space_group_name_H-M   P2/c
_cell_length_a   11.54902975
_cell_length_b   6.15749087
_cell_length_c   13.70474283
_cell_angle_alpha   90.00000000
_cell_angle_beta   91.27967421
_cell_angle_gamma   90.00000000
_symmetry_Int_Tables_number   13
_chemical_formula_moiety   'C9 H8 O4'
_chemical_formula_sum   'H32 C36 O16'
_cell_volume   974.34292973
_cell_formula_units_Z   4
loop_
 _symmetry_equiv_pos_site_id
 _symmetry_equiv_pos_as_xyz
  1  'x, y, z'
  2  '-x, -y, -z'
  3  '-x, y, -z+1/2'
  4  'x, -y, z+1/2'
loop_
 _atom_site_type_symbol
 _atom_site_label
 _atom_site_symmetry_multiplicity
 _atom_site_fract_x
 _atom_site_fract_y
 _atom_site_fract_z
 _atom_site_occupancy
  H  H0  4  0.02979908  0.00112709  0.18074413  1
  H  H1  4  0.07063298  0.51271703  0.44500257  1
  H  H2  4  0.12212363  -0.34169613  0.24138878  1
  H  H3  4  0.29302214  -0.49134957  0.15349750  1
  H  H4  4  0.32755952  0.55811206  0.34220520  1
  H  H5  4  0.37223100  1.28920985  0.51287891  1
  H  H6  4  0.41242154  0.22142090  -0.19720255  1
  H  H7  4  0.47848085  0.43953321  -0.12680314  1
  C  C8  4  0.08509719  0.24999536  0.03664787  1
  C  C9  4  0.10591926  -0.06513823  0.14612707  1
  C  C10  4  0.14883168  0.05002471  0.06613640  1
  C  C11  4  0.15705686  -0.25651615  0.17886406  1
  C  C12  4  0.24649124  -0.03504731  0.01987756  1
  C  C13  4  0.25274795  -0.33900780  0.13058077  1
  C  C14  4  0.29742533  1.22792483  0.55128712  1
  C  C15  4  0.37330204  0.22483353  -0.04461538  1
  C  C16  4  0.40168818  0.33789105  -0.13762947  1
  O  O17  4  0.00065793  0.31238011  0.08407397  1
  O  O18  4  0.12214864  0.64711521  0.45909887  1
  O  O19  4  0.29262508  0.06477218  -0.06176561  1
  O  O20  4  0.41200687  0.26662639  0.03625711  1
