###############################################################################################
#
# CIF file generated by modified CIFWriter class 
# in pymatgen (v2025.03.10) https://pymatgen.org/
#
###############################################################################################
data_PBE+MBD_tight_5003ed2e9bac010
_symmetry_space_group_name_H-M   P2_1/c
_cell_length_a   7.64835935
_cell_length_b   8.37835716
_cell_length_c   13.69119058
_cell_angle_alpha   90.00000000
_cell_angle_beta   103.71871938
_cell_angle_gamma   90.00000000
_symmetry_Int_Tables_number   14
_chemical_formula_moiety   'C9 H8 O4'
_chemical_formula_sum   'H32 C36 O16'
_cell_volume   852.31183584
_cell_formula_units_Z   4
loop_
 _symmetry_equiv_pos_site_id
 _symmetry_equiv_pos_as_xyz
  1  'x, y, z'
  2  '-x, -y, -z'
  3  '-x, y+1/2, -z+1/2'
  4  'x, -y+1/2, z+1/2'
loop_
 _atom_site_type_symbol
 _atom_site_label
 _atom_site_symmetry_multiplicity
 _atom_site_fract_x
 _atom_site_fract_y
 _atom_site_fract_z
 _atom_site_occupancy
  H  H0  4  -0.32819433  0.99569857  0.63372808  1
  H  H1  4  -0.29223984  1.04411395  0.51264130  1
  H  H2  4  -0.28668394  0.65923428  0.05356211  1
  H  H3  4  -0.09805230  0.50230479  0.42029759  1
  H  H4  4  0.24596419  0.74603018  0.10084639  1
  H  H5  4  0.31542096  0.23935159  0.13572412  1
  H  H6  4  0.43298505  0.30096541  0.31669502  1
  H  H7  4  0.47727655  0.62405548  0.46197405  1
  C  C8  4  -0.25306649  0.53577533  0.07721809  1
  C  C9  4  -0.05571924  0.51941238  0.12331106  1
  C  C10  4  0.13457696  0.56056447  0.40500740  1
  C  C11  4  0.18357730  0.65605934  0.23493805  1
  C  C12  4  0.24617182  0.87897355  0.83781928  1
  C  C13  4  0.29952688  0.71731938  0.17976789  1
  C  C14  4  0.42885940  0.65092727  0.38239002  1
  C  C15  4  0.45545385  0.21420990  0.17179595  1
  C  C16  4  0.47872153  0.74799316  0.22624920  1
  O  O17  4  -0.03624885  0.96768573  0.86428874  1
  O  O18  4  0.00205659  0.85458678  0.68708515  1
  O  O19  4  0.04189072  0.41206414  0.10973503  1
  O  O20  4  0.20366240  0.53863021  0.49602469  1
