###############################################################################################
#
# CIF file generated by modified CIFWriter class 
# in pymatgen (v2025.03.10) https://pymatgen.org/
#
###############################################################################################
data_PBE+MBD_tight_51c813b8b311d8c
_symmetry_space_group_name_H-M   P2_12_12_1
_cell_length_a   11.55483409
_cell_length_b   7.22169665
_cell_length_c   10.73946868
_cell_angle_alpha   90.00000000
_cell_angle_beta   90.00000000
_cell_angle_gamma   90.00000000
_symmetry_Int_Tables_number   19
_chemical_formula_moiety   'C9 H8 O4'
_chemical_formula_sum   'H32 C36 O16'
_cell_volume   896.16040463
_cell_formula_units_Z   4
loop_
 _symmetry_equiv_pos_site_id
 _symmetry_equiv_pos_as_xyz
  1  'x, y, z'
  2  'x+1/2, -y+1/2, -z'
  3  '-x, y+1/2, -z+1/2'
  4  '-x+1/2, -y, z+1/2'
loop_
 _atom_site_type_symbol
 _atom_site_label
 _atom_site_symmetry_multiplicity
 _atom_site_fract_x
 _atom_site_fract_y
 _atom_site_fract_z
 _atom_site_occupancy
  H  H0  4  -0.09633527  0.10274063  0.64717742  1
  H  H1  4  -0.02903868  0.08511597  0.86842044  1
  H  H2  4  0.02275265  0.92133735  0.32433985  1
  H  H3  4  0.04254345  0.19820339  0.48110926  1
  H  H4  4  0.15972712  0.18912759  1.18024854  1
  H  H5  4  0.18822965  0.82167111  0.66420438  1
  H  H6  4  0.24438451  0.39760191  1.18991352  1
  H  H7  4  0.24838036  0.25601099  0.53557065  1
  C  C8  4  -0.00643175  0.13296834  0.67022197  1
  C  C9  4  0.03037322  0.12166464  0.79361980  1
  C  C10  4  0.07129131  0.18482971  0.57718366  1
  C  C11  4  0.14534323  0.15719875  0.82352348  1
  C  C12  4  0.14663770  0.78339214  0.24968297  1
  C  C13  4  0.18648455  0.21847046  0.60752797  1
  C  C14  4  0.22621413  0.20172712  0.73036934  1
  C  C15  4  0.22765479  0.29199990  1.00617194  1
  C  C16  4  0.23513323  0.26334019  1.14378766  1
  O  O17  4  0.08320088  0.67601800  0.19419137  1
  O  O18  4  0.10743812  0.91444806  0.32865167  1
  O  O19  4  0.17206884  0.14532906  0.94984817  1
  O  O20  4  0.23553891  0.57582208  0.44891611  1
