###############################################################################################
#
# CIF file generated by modified CIFWriter class 
# in pymatgen (v2025.03.10) https://pymatgen.org/
#
###############################################################################################
data_PBE+MBD_tight_5281f482792920d
_symmetry_space_group_name_H-M   P4_3
_cell_length_a   10.22071661
_cell_length_b   10.22071661
_cell_length_c   9.24540476
_cell_angle_alpha   90.00000000
_cell_angle_beta   90.00000000
_cell_angle_gamma   90.00000000
_symmetry_Int_Tables_number   78
_chemical_formula_moiety   'C9 H8 O4'
_chemical_formula_sum   'H32 C36 O16'
_cell_volume   965.80316194
_cell_formula_units_Z   4
loop_
 _symmetry_equiv_pos_site_id
 _symmetry_equiv_pos_as_xyz
  1  'x, y, z'
  2  '-y, x, z+3/4'
  3  '-x, -y, z+1/2'
  4  'y, -x, z+1/4'
loop_
 _atom_site_type_symbol
 _atom_site_label
 _atom_site_symmetry_multiplicity
 _atom_site_fract_x
 _atom_site_fract_y
 _atom_site_fract_z
 _atom_site_occupancy
  H  H0  4  -0.30580104  0.61412586  0.74986773  1
  H  H1  4  -0.18237092  0.23282376  0.94101822  1
  H  H2  4  0.02096812  0.10001670  0.95169433  1
  H  H3  4  0.03171183  0.89495946  0.87120360  1
  H  H4  4  0.03289082  0.81746628  0.69543597  1
  H  H5  4  0.17399578  0.17737045  0.55143048  1
  H  H6  4  0.19719958  0.76704350  0.12902077  1
  H  H7  4  0.24078787  0.43256161  0.80112131  1
  C  C8  4  -0.21594758  0.47507158  0.85357061  1
  C  C9  4  -0.08882017  0.27594323  0.91113843  1
  C  C10  4  -0.08727261  0.40668932  0.86438503  1
  C  C11  4  0.02474564  0.20152614  0.91630949  1
  C  C12  4  0.03485188  0.46006685  0.82631120  1
  C  C13  4  0.03700983  0.68680633  0.87568743  1
  C  C14  4  0.07049172  0.81450498  0.80633446  1
  C  C15  4  0.14436169  0.25628345  0.87622431  1
  C  C16  4  0.14902962  0.38615427  0.83223913  1
  O  O17  4  -0.31582248  0.43646333  0.91476320  1
  O  O18  4  -0.21533063  0.57927945  0.76713933  1
  O  O19  4  0.00560186  0.66943367  1.00062617  1
  O  O20  4  0.05064723  0.58758384  0.77704011  1
