###############################################################################################
#
# CIF file generated by modified CIFWriter class 
# in pymatgen (v2025.03.10) https://pymatgen.org/
#
###############################################################################################
data_PBE+MBD_tight_54fbcf7e38e9475
_symmetry_space_group_name_H-M   P2/c
_cell_length_a   12.98685071
_cell_length_b   5.09803259
_cell_length_c   13.94795326
_cell_angle_alpha   90.00000000
_cell_angle_beta   64.43319217
_cell_angle_gamma   90.00000000
_symmetry_Int_Tables_number   13
_chemical_formula_moiety   'C9 H8 O4'
_chemical_formula_sum   'H32 C36 O16'
_cell_volume   833.03507378
_cell_formula_units_Z   4
loop_
 _symmetry_equiv_pos_site_id
 _symmetry_equiv_pos_as_xyz
  1  'x, y, z'
  2  '-x, -y, -z'
  3  '-x, y, -z+1/2'
  4  'x, -y, z+1/2'
loop_
 _atom_site_type_symbol
 _atom_site_label
 _atom_site_symmetry_multiplicity
 _atom_site_fract_x
 _atom_site_fract_y
 _atom_site_fract_z
 _atom_site_occupancy
  H  H0  4  0.00861055  -0.11482789  0.82597318  1
  H  H1  4  0.08751964  0.50593088  1.00443147  1
  H  H2  4  0.10644568  1.47622602  0.19644641  1
  H  H3  4  0.31293588  -0.55357195  0.63944019  1
  H  H4  4  0.39925047  0.46452841  0.94504397  1
  H  H5  4  0.42144616  -0.26552408  0.70949986  1
  H  H6  4  0.47043516  0.22169817  0.98847063  1
  H  H7  4  0.48022191  0.29684438  0.64998037  1
  C  C8  4  0.09015651  0.77652552  0.41252880  1
  C  C9  4  0.09938161  -0.15193615  0.79856710  1
  C  C10  4  0.15385375  -0.35192061  0.72696665  1
  C  C11  4  0.15815056  0.01152110  0.83914907  1
  C  C12  4  0.27002565  -0.39564414  0.69503072  1
  C  C13  4  0.27538973  -0.03488108  0.80509086  1
  C  C14  4  0.33037564  1.23673137  0.23419277  1
  C  C15  4  0.36800626  0.06987187  0.91572849  1
  C  C16  4  0.44436155  0.72449028  0.42636455  1
  O  O17  4  -0.00948968  0.73414066  0.42588775  1
  O  O18  4  0.14084428  0.35836611  0.96042170  1
  O  O19  4  0.33288020  1.12623369  0.46902407  1
  O  O20  4  0.34315623  0.86669267  0.33210700  1
