###############################################################################################
#
# CIF file generated by modified CIFWriter class 
# in pymatgen (v2025.03.10) https://pymatgen.org/
#
###############################################################################################
data_PBE+MBD_tight_55b9d5a7b93bce9
_symmetry_space_group_name_H-M   P2_12_12_1
_cell_length_a   6.47542872
_cell_length_b   15.85081793
_cell_length_c   8.29308376
_cell_angle_alpha   90.00000000
_cell_angle_beta   90.00000000
_cell_angle_gamma   90.00000000
_symmetry_Int_Tables_number   19
_chemical_formula_moiety   'C9 H8 O4'
_chemical_formula_sum   'H32 C36 O16'
_cell_volume   851.20909783
_cell_formula_units_Z   4
loop_
 _symmetry_equiv_pos_site_id
 _symmetry_equiv_pos_as_xyz
  1  'x, y, z'
  2  '-x, y+1/2, -z+1/2'
  3  'x+1/2, -y+1/2, -z'
  4  '-x+1/2, -y, z+1/2'
loop_
 _atom_site_type_symbol
 _atom_site_label
 _atom_site_symmetry_multiplicity
 _atom_site_fract_x
 _atom_site_fract_y
 _atom_site_fract_z
 _atom_site_occupancy
  H  H0  4  -0.16346880  0.52391616  0.09466661  1
  H  H1  4  -0.15351984  0.76266858  0.38373251  1
  H  H2  4  -0.03413975  0.35958354  0.49291167  1
  H  H3  4  -0.03162279  0.14770450  0.90959054  1
  H  H4  4  0.06150912  0.49966298  0.37758275  1
  H  H5  4  0.07554978  0.12069989  0.71679166  1
  H  H6  4  0.08354648  0.44279071  -0.07661807  1
  H  H7  4  0.23048619  0.11918443  0.89683434  1
  C  C8  4  -0.11312267  0.66543901  0.24822598  1
  C  C9  4  -0.00925176  0.54827766  0.07006379  1
  C  C10  4  0.04262415  0.62671221  0.13835197  1
  C  C11  4  0.10537963  0.15156179  0.83224432  1
  C  C12  4  0.11773381  0.38681323  0.51415701  1
  C  C13  4  0.12914596  0.50293504  -0.02415660  1
  C  C14  4  0.16678123  0.24168109  0.81234989  1
  C  C15  4  0.17301622  0.46461021  0.44955729  1
  C  C16  4  0.24130988  0.65837874  0.10679324  1
  O  O17  4  -0.08484794  0.74765605  0.27878234  1
  O  O18  4  0.19191558  0.29251013  0.92161206  1
  O  O19  4  0.19283177  0.26138758  0.65469027  1
  O  O20  4  0.24685751  0.87613434  0.69218131  1
