###############################################################################################
#
# CIF file generated by modified CIFWriter class 
# in pymatgen (v2025.03.10) https://pymatgen.org/
#
###############################################################################################
data_PBE+MBD_tight_5854fb1cbe80b8f
_symmetry_space_group_name_H-M   P2_1/c
_cell_length_a   6.72355357
_cell_length_b   16.82149242
_cell_length_c   8.59918513
_cell_angle_alpha   90.00000000
_cell_angle_beta   98.05987385
_cell_angle_gamma   90.00000000
_symmetry_Int_Tables_number   14
_chemical_formula_moiety   'C9 H8 O4'
_chemical_formula_sum   'H32 C36 O16'
_cell_volume   962.96265248
_cell_formula_units_Z   4
loop_
 _symmetry_equiv_pos_site_id
 _symmetry_equiv_pos_as_xyz
  1  'x, y, z'
  2  '-x, -y, -z'
  3  '-x, y+1/2, -z+1/2'
  4  'x, -y+1/2, z+1/2'
loop_
 _atom_site_type_symbol
 _atom_site_label
 _atom_site_symmetry_multiplicity
 _atom_site_fract_x
 _atom_site_fract_y
 _atom_site_fract_z
 _atom_site_occupancy
  H  H0  4  -0.35224044  0.94936798  0.92637084  1
  H  H1  4  -0.24909222  1.08223315  0.83790836  1
  H  H2  4  -0.15195125  0.82989098  0.87955047  1
  H  H3  4  0.04869205  0.40728307  0.19364562  1
  H  H4  4  0.32215377  0.81750613  0.35096197  1
  H  H5  4  0.41519173  0.71922765  0.68174800  1
  H  H6  4  0.43244728  0.27668131  0.12910493  1
  H  H7  4  0.49772051  0.56615392  0.01778486  1
  C  C8  4  -0.22186865  0.54451297  0.36516604  1
  C  C9  4  -0.16457278  1.02959875  0.81398204  1
  C  C10  4  -0.11068748  0.88816736  0.83896992  1
  C  C11  4  0.00176363  0.46446762  0.23557319  1
  C  C12  4  0.05730607  0.89453453  0.76220278  1
  C  C13  4  0.11647695  0.53147152  0.20720115  1
  C  C14  4  0.28873210  0.51809972  0.11968326  1
  C  C15  4  0.33011476  0.69176419  0.34085550  1
  C  C16  4  0.41533475  0.77097494  0.30773731  1
  O  O17  4  0.15805005  0.67627059  0.23907916  1
  O  O18  4  0.33571251  0.44961665  0.08389142  1
  O  O19  4  0.38462458  0.58203761  0.08168701  1
  O  O20  4  0.39604012  0.85331001  0.94576420  1
