###############################################################################################
#
# CIF file generated by modified CIFWriter class 
# in pymatgen (v2025.03.10) https://pymatgen.org/
#
###############################################################################################
data_PBE+MBD_tight_58ab7901c0e32a4
_symmetry_space_group_name_H-M   Pna2_1
_cell_length_a   12.01168852
_cell_length_b   12.38560563
_cell_length_c   6.35587870
_cell_angle_alpha   90.00000000
_cell_angle_beta   90.00000000
_cell_angle_gamma   90.00000000
_symmetry_Int_Tables_number   33
_chemical_formula_moiety   'C9 H8 O4'
_chemical_formula_sum   'H32 C36 O16'
_cell_volume   945.57702051
_cell_formula_units_Z   4
loop_
 _symmetry_equiv_pos_site_id
 _symmetry_equiv_pos_as_xyz
  1  'x, y, z'
  2  '-x, -y, z+1/2'
  3  '-x+1/2, y+1/2, z+1/2'
  4  'x+1/2, -y+1/2, z'
loop_
 _atom_site_type_symbol
 _atom_site_label
 _atom_site_symmetry_multiplicity
 _atom_site_fract_x
 _atom_site_fract_y
 _atom_site_fract_z
 _atom_site_occupancy
  H  H0  4  -0.01415043  0.34651553  0.40045328  1
  H  H1  4  0.01292506  0.28662171  0.65272219  1
  H  H2  4  0.03211557  0.19670324  0.05081045  1
  H  H3  4  0.05913059  -0.15455641  0.00674258  1
  H  H4  4  0.06219329  0.64843375  0.45972921  1
  H  H5  4  0.11425396  0.27723075  0.44384061  1
  H  H6  4  0.14065535  0.83608652  0.50476203  1
  H  H7  4  0.15547379  0.35904004  0.05162250  1
  C  C8  4  0.05042746  0.32775857  0.51779585  1
  C  C9  4  0.07973738  -0.00496009  0.00776628  1
  C  C10  4  0.09858929  0.43263545  0.59190881  1
  C  C11  4  0.12164856  0.18864906  0.03076622  1
  C  C12  4  0.15096294  0.66220281  0.48182405  1
  C  C13  4  0.16363320  0.08345003  0.00655342  1
  C  C14  4  0.19038557  0.27858740  0.03180942  1
  C  C15  4  0.19490570  0.76542356  0.50602474  1
  C  C16  4  0.22068102  0.57214223  0.48305733  1
  O  O17  4  -0.02063935  0.01082672  0.01106040  1
  O  O18  4  0.07570202  0.47870702  0.75449971  1
  O  O19  4  0.12309960  -0.10571747  0.00616119  1
  O  O20  4  0.17378741  0.47110209  0.44792477  1
