###############################################################################################
#
# CIF file generated by modified CIFWriter class 
# in pymatgen (v2025.03.10) https://pymatgen.org/
#
###############################################################################################
data_PBE+MBD_tight_5a2f95611d8c662
_symmetry_space_group_name_H-M   P-4
_cell_length_a   11.00113198
_cell_length_b   11.00113198
_cell_length_c   8.26533595
_cell_angle_alpha   90.00000000
_cell_angle_beta   90.00000000
_cell_angle_gamma   90.00000000
_symmetry_Int_Tables_number   81
_chemical_formula_moiety   'C9 H8 O4'
_chemical_formula_sum   'H32 C36 O16'
_cell_volume   1000.31149674
_cell_formula_units_Z   4
loop_
 _symmetry_equiv_pos_site_id
 _symmetry_equiv_pos_as_xyz
  1  'x, y, z'
  2  'y, -x, -z'
  3  '-x, -y, z'
  4  '-y, x, -z'
loop_
 _atom_site_type_symbol
 _atom_site_label
 _atom_site_symmetry_multiplicity
 _atom_site_fract_x
 _atom_site_fract_y
 _atom_site_fract_z
 _atom_site_occupancy
  H  H0  4  -0.17669752  0.30259539  0.40821557  1
  H  H1  4  -0.16014068  0.17974229  0.27249433  1
  H  H2  4  -0.12650521  0.32897266  0.20292522  1
  H  H3  4  -0.03860024  0.86212055  0.98298318  1
  H  H4  4  0.12129566  0.51844113  0.81030721  1
  H  H5  4  0.18367091  0.43516588  0.35848801  1
  H  H6  4  0.31725189  0.44474542  0.70045187  1
  H  H7  4  0.40320223  0.47642686  0.38348284  1
  C  C8  4  -0.12188482  0.26804449  0.30775132  1
  C  C9  4  0.00677441  0.25280969  0.36368203  1
  C  C10  4  0.04755006  0.73847333  0.86408500  1
  C  C11  4  0.16755166  0.70782351  0.79235840  1
  C  C12  4  0.19112441  0.58299144  0.77346079  1
  C  C13  4  0.20869142  0.25745963  0.25591112  1
  C  C14  4  0.24973291  0.36711770  0.32072691  1
  C  C15  4  0.30095103  0.54209727  0.71131142  1
  C  C16  4  0.37359822  0.38911537  0.33562425  1
  O  O17  4  -0.03768900  0.66828045  0.87194841  1
  O  O18  4  0.04081405  0.85215347  0.92689586  1
  O  O19  4  0.04196840  0.24839056  0.50185004  1
  O  O20  4  0.08457175  0.24339218  0.23178127  1
