###############################################################################################
#
# CIF file generated by modified CIFWriter class 
# in pymatgen (v2025.03.10) https://pymatgen.org/
#
###############################################################################################
data_PBE+MBD_tight_5dc6e77d661c835
_symmetry_space_group_name_H-M   P2/c
_cell_length_a   8.16319005
_cell_length_b   6.70826434
_cell_length_c   17.20066078
_cell_angle_alpha   90.00000000
_cell_angle_beta   89.88563652
_cell_angle_gamma   90.00000000
_symmetry_Int_Tables_number   13
_chemical_formula_moiety   'C9 H8 O4'
_chemical_formula_sum   'H32 C36 O16'
_cell_volume   941.92070103
_cell_formula_units_Z   4
loop_
 _symmetry_equiv_pos_site_id
 _symmetry_equiv_pos_as_xyz
  1  'x, y, z'
  2  '-x, -y, -z'
  3  '-x, y, -z+1/2'
  4  'x, -y, z+1/2'
loop_
 _atom_site_type_symbol
 _atom_site_label
 _atom_site_symmetry_multiplicity
 _atom_site_fract_x
 _atom_site_fract_y
 _atom_site_fract_z
 _atom_site_occupancy
  H  H0  4  0.05766070  -0.42259597  0.56753251  1
  H  H1  4  0.11235677  -0.29142691  0.43318200  1
  H  H2  4  0.14359541  1.22558440  0.18213428  1
  H  H3  4  0.18566940  0.42302332  0.81020862  1
  H  H4  4  0.26396483  0.02748375  0.41752879  1
  H  H5  4  0.35315743  0.50571435  0.75276770  1
  H  H6  4  0.37035925  0.72408373  0.30384912  1
  H  H7  4  0.49492647  0.51150711  0.43530397  1
  C  C8  4  0.12058686  -0.28135884  0.55874835  1
  C  C9  4  0.15340129  -0.20992792  0.48419106  1
  C  C10  4  0.16902791  1.17188355  0.12356757  1
  C  C11  4  0.21353730  0.27533509  0.70239975  1
  C  C12  4  0.23630981  -0.03084432  0.47515148  1
  C  C13  4  0.25066744  0.00844481  0.61418007  1
  C  C14  4  0.28569415  0.62696237  0.27245422  1
  C  C15  4  0.28767529  0.08204703  0.53945648  1
  C  C16  4  0.37827849  0.26878708  0.52253810  1
  O  O17  4  0.09548099  0.33405598  0.66644690  1
  O  O18  4  0.29851895  0.10587477  0.68213302  1
  O  O19  4  0.39434411  0.67182218  -0.04567066  1
  O  O20  4  0.44035777  0.36344455  0.58265158  1
