###############################################################################################
#
# CIF file generated by modified CIFWriter class 
# in pymatgen (v2025.03.10) https://pymatgen.org/
#
###############################################################################################
data_PBE+MBD_tight_5dd09f079fb7ce9
_symmetry_space_group_name_H-M   P2_1/c
_cell_length_a   7.71728136
_cell_length_b   5.16028553
_cell_length_c   22.78178843
_cell_angle_alpha   90.00000000
_cell_angle_beta   107.37884348
_cell_angle_gamma   90.00000000
_symmetry_Int_Tables_number   14
_chemical_formula_moiety   'C9 H8 O4'
_chemical_formula_sum   'H32 C36 O16'
_cell_volume   865.83247550
_cell_formula_units_Z   4
loop_
 _symmetry_equiv_pos_site_id
 _symmetry_equiv_pos_as_xyz
  1  'x, y, z'
  2  '-x, -y, -z'
  3  '-x, y+1/2, -z+1/2'
  4  'x, -y+1/2, z+1/2'
loop_
 _atom_site_type_symbol
 _atom_site_label
 _atom_site_symmetry_multiplicity
 _atom_site_fract_x
 _atom_site_fract_y
 _atom_site_fract_z
 _atom_site_occupancy
  H  H0  4  -0.03578173  1.20706273  0.54656320  1
  H  H1  4  0.05955342  0.19583815  0.72466294  1
  H  H2  4  0.12172749  0.03230239  0.07296791  1
  H  H3  4  0.14019704  0.22914702  0.01157089  1
  H  H4  4  0.16286161  0.47192557  0.33173558  1
  H  H5  4  0.20890423  -0.09465596  0.19773645  1
  H  H6  4  0.38721997  0.85750513  -0.00321237  1
  H  H7  4  0.46173628  -0.30111904  0.27728810  1
  C  C8  4  0.10492598  0.23125736  0.05485134  1
  C  C9  4  0.16981609  0.20775789  0.25899979  1
  C  C10  4  0.22781779  0.30372968  0.31861698  1
  C  C11  4  0.22912238  0.40990720  0.09992492  1
  C  C12  4  0.25340618  0.51124891  0.74376426  1
  C  C13  4  0.37331572  0.19077945  0.36400513  1
  C  C14  4  0.39609957  0.62893870  0.78820934  1
  C  C15  4  0.42636916  0.31484588  0.42555555  1
  C  C16  4  0.45723900  -0.02769877  0.34742155  1
  O  O17  4  0.18567678  0.90623817  0.62546507  1
  O  O18  4  0.32507749  0.47823391  0.43871241  1
  O  O19  4  0.40670236  1.16578017  0.61002682  1
  O  O20  4  0.41605034  0.74571059  0.03628640  1
