###############################################################################################
#
# CIF file generated by modified CIFWriter class 
# in pymatgen (v2025.03.10) https://pymatgen.org/
#
###############################################################################################
data_PBE+MBD_tight_5ddf570cfbab92e
_symmetry_space_group_name_H-M   P2_12_12_1
_cell_length_a   4.55950908
_cell_length_b   10.35270454
_cell_length_c   18.03441389
_cell_angle_alpha   90.00000000
_cell_angle_beta   90.00000000
_cell_angle_gamma   90.00000000
_symmetry_Int_Tables_number   19
_chemical_formula_moiety   'C9 H8 O4'
_chemical_formula_sum   'H32 C36 O16'
_cell_volume   851.28295312
_cell_formula_units_Z   4
loop_
 _symmetry_equiv_pos_site_id
 _symmetry_equiv_pos_as_xyz
  1  'x, y, z'
  2  '-x+1/2, -y, z+1/2'
  3  'x+1/2, -y+1/2, -z'
  4  '-x, y+1/2, -z+1/2'
loop_
 _atom_site_type_symbol
 _atom_site_label
 _atom_site_symmetry_multiplicity
 _atom_site_fract_x
 _atom_site_fract_y
 _atom_site_fract_z
 _atom_site_occupancy
  H  H0  4  -0.17337664  0.52961047  0.27423688  1
  H  H1  4  -0.07333546  0.81616971  0.75287567  1
  H  H2  4  -0.04740571  0.67904320  0.51745474  1
  H  H3  4  -0.03771236  0.75369163  0.99519122  1
  H  H4  4  -0.01503372  0.45463222  0.14932752  1
  H  H5  4  0.03943619  0.51847626  0.54682905  1
  H  H6  4  0.14371135  0.72425340  0.63911438  1
  H  H7  4  0.20567281  -0.04776333  0.50122538  1
  C  C8  4  -0.06376834  0.57665816  0.50284119  1
  C  C9  4  -0.00883465  0.45411180  0.26837311  1
  C  C10  4  0.02104119  0.75881413  0.89075254  1
  C  C11  4  0.07888935  0.41064491  0.19876105  1
  C  C12  4  0.09351567  0.74109097  0.75662445  1
  C  C13  4  0.09465647  0.55044149  0.43175076  1
  C  C14  4  0.10997250  0.39939136  0.33202545  1
  C  C15  4  0.17723159  0.69865213  0.82761663  1
  C  C16  4  0.21458979  0.68827096  0.69286630  1
  O  O17  4  -0.17812975  0.83660934  0.88330947  1
  O  O18  4  -0.00762862  0.43843905  0.39994385  1
  O  O19  4  0.10889177  0.71964035  0.95934668  1
  O  O20  4  0.20855183  0.38587880  0.90513145  1
