###############################################################################################
#
# CIF file generated by modified CIFWriter class 
# in pymatgen (v2025.03.10) https://pymatgen.org/
#
###############################################################################################
data_PBE+MBD_tight_5fabeaa3496442b
_symmetry_space_group_name_H-M   P2/c
_cell_length_a   8.18454167
_cell_length_b   4.08987561
_cell_length_c   28.48562751
_cell_angle_alpha   90.00000000
_cell_angle_beta   108.22820578
_cell_angle_gamma   90.00000000
_symmetry_Int_Tables_number   13
_chemical_formula_moiety   'C9 H8 O4'
_chemical_formula_sum   'H32 C36 O16'
_cell_volume   905.67156325
_cell_formula_units_Z   4
loop_
 _symmetry_equiv_pos_site_id
 _symmetry_equiv_pos_as_xyz
  1  'x, y, z'
  2  '-x, -y, -z'
  3  '-x, y, -z+1/2'
  4  'x, -y, z+1/2'
loop_
 _atom_site_type_symbol
 _atom_site_label
 _atom_site_symmetry_multiplicity
 _atom_site_fract_x
 _atom_site_fract_y
 _atom_site_fract_z
 _atom_site_occupancy
  H  H0  4  -0.08478924  1.06178905  0.32332740  1
  H  H1  4  0.00344863  -0.45808671  0.84073726  1
  H  H2  4  0.05930921  1.24360608  0.29394542  1
  H  H3  4  0.06673199  0.22523610  0.52348619  1
  H  H4  4  0.15953441  0.65943460  0.11319015  1
  H  H5  4  0.25971662  -0.09038839  0.48704258  1
  H  H6  4  0.36964776  0.75794019  0.25648499  1
  H  H7  4  0.45478243  1.28265753  0.45804269  1
  C  C8  4  0.02945388  -0.21421818  0.82861993  1
  C  C9  4  0.17943383  -0.06955470  0.86761074  1
  C  C10  4  0.19220361  0.85825445  0.04676366  1
  C  C11  4  0.24424029  0.20894998  0.59702235  1
  C  C12  4  0.30037176  1.03294506  0.02642522  1
  C  C13  4  0.40691650  0.11255962  0.62801258  1
  C  C14  4  0.45141325  0.80304661  0.18121367  1
  C  C15  4  0.46087144  -0.13748528  0.55664629  1
  C  C16  4  0.48562535  -0.06217926  0.89320807  1
  O  O17  4  0.17328333  0.12386247  0.89934038  1
  O  O18  4  0.33077593  -0.18524722  0.86271102  1
  O  O19  4  0.33626635  0.72979741  0.19944705  1
  O  O20  4  0.38412600  0.80774489  0.29288939  1
