###############################################################################################
#
# CIF file generated by modified CIFWriter class 
# in pymatgen (v2025.03.10) https://pymatgen.org/
#
###############################################################################################
data_PBE+MBD_tight_618d93be71098b3
_symmetry_space_group_name_H-M   Pna2_1
_cell_length_a   7.93466172
_cell_length_b   8.64201552
_cell_length_c   13.23659975
_cell_angle_alpha   90.00000000
_cell_angle_beta   90.00000000
_cell_angle_gamma   90.00000000
_symmetry_Int_Tables_number   33
_chemical_formula_moiety   'C9 H8 O4'
_chemical_formula_sum   'H32 C36 O16'
_cell_volume   907.65309921
_cell_formula_units_Z   4
loop_
 _symmetry_equiv_pos_site_id
 _symmetry_equiv_pos_as_xyz
  1  'x, y, z'
  2  '-x, -y, z+1/2'
  3  '-x+1/2, y+1/2, z+1/2'
  4  'x+1/2, -y+1/2, z'
loop_
 _atom_site_type_symbol
 _atom_site_label
 _atom_site_symmetry_multiplicity
 _atom_site_fract_x
 _atom_site_fract_y
 _atom_site_fract_z
 _atom_site_occupancy
  H  H0  4  -0.24821096  0.49072639  -0.29003296  1
  H  H1  4  -0.19833598  0.29074235  -0.28658150  1
  H  H2  4  -0.09131868  1.17664366  0.45671915  1
  H  H3  4  -0.01518469  1.23358644  0.27806177  1
  H  H4  4  0.08162528  0.98503508  0.55414696  1
  H  H5  4  0.14742871  0.13169312  -0.20051926  1
  H  H6  4  0.16673838  0.36826973  -0.02171483  1
  H  H7  4  0.20166312  0.52980143  -0.45763190  1
  C  C8  4  -0.23381606  0.39010883  -0.23966842  1
  C  C9  4  -0.09913629  0.42940817  -0.16536701  1
  C  C10  4  0.01862569  1.12207603  0.42267792  1
  C  C11  4  0.06153580  1.15545983  0.32314753  1
  C  C12  4  0.11562273  1.01638458  0.47712578  1
  C  C13  4  0.19804096  0.48621715  -0.16476005  1
  C  C14  4  0.20113661  1.08588421  0.27717497  1
  C  C15  4  0.23547572  1.12361479  0.16899172  1
  C  C16  4  0.24162683  0.44880143  -0.06584866  1
  O  O17  4  -0.11823071  0.46508614  -0.07728805  1
  O  O18  4  0.05474341  0.42730260  -0.21208539  1
  O  O19  4  0.22693286  1.25561123  0.13582924  1
  O  O20  4  0.23024097  0.49901363  -0.38715021  1
