###############################################################################################
#
# CIF file generated by modified CIFWriter class 
# in pymatgen (v2025.03.10) https://pymatgen.org/
#
###############################################################################################
data_PBE+MBD_tight_61dc2f2c2bf1601
_symmetry_space_group_name_H-M   Pca2_1
_cell_length_a   11.50672759
_cell_length_b   10.33707518
_cell_length_c   7.53321046
_cell_angle_alpha   90.00000000
_cell_angle_beta   90.00000000
_cell_angle_gamma   90.00000000
_symmetry_Int_Tables_number   29
_chemical_formula_moiety   'C9 H8 O4'
_chemical_formula_sum   'H32 C36 O16'
_cell_volume   896.04455949
_cell_formula_units_Z   4
loop_
 _symmetry_equiv_pos_site_id
 _symmetry_equiv_pos_as_xyz
  1  'x, y, z'
  2  '-x, -y, z+1/2'
  3  '-x+1/2, y, z+1/2'
  4  'x+1/2, -y, z'
loop_
 _atom_site_type_symbol
 _atom_site_label
 _atom_site_symmetry_multiplicity
 _atom_site_fract_x
 _atom_site_fract_y
 _atom_site_fract_z
 _atom_site_occupancy
  H  H0  4  -0.22533330  0.38446275  0.33507126  1
  H  H1  4  -0.15801315  0.51311052  0.07523381  1
  H  H2  4  -0.10737239  0.19491668  0.43909471  1
  H  H3  4  0.02832284  0.45447663  -0.07393095  1
  H  H4  4  0.11638104  -0.20161059  0.28105621  1
  H  H5  4  0.14646580  -0.10048659  0.46804828  1
  H  H6  4  0.21376207  0.14028256  0.43986846  1
  H  H7  4  0.22742909  -0.07902440  0.26896410  1
  C  C8  4  -0.14596572  0.35720148  0.26568394  1
  C  C9  4  -0.10781469  0.43009882  0.12072682  1
  C  C10  4  -0.08079857  0.25195303  0.32460000  1
  C  C11  4  -0.00412344  0.39760046  0.03715703  1
  C  C12  4  0.02139071  0.21884407  0.23704651  1
  C  C13  4  0.05337494  -0.00871119  0.25927002  1
  C  C14  4  0.06238769  0.29105715  0.09245730  1
  C  C15  4  0.14157646  -0.10422534  0.32250099  1
  C  C16  4  0.17269491  0.26605600  -0.00581809  1
  O  O17  4  -0.03534053  -0.03135063  0.17931981  1
  O  O18  4  0.08722026  0.11573643  0.30333779  1
  O  O19  4  0.21389297  0.14521420  0.01101225  1
  O  O20  4  0.22051665  0.34851773  -0.09645882  1
