###############################################################################################
#
# CIF file generated by modified CIFWriter class 
# in pymatgen (v2025.03.10) https://pymatgen.org/
#
###############################################################################################
data_PBE+MBD_tight_6373ae707c16ca9
_symmetry_space_group_name_H-M   P2_1/c
_cell_length_a   11.04564681
_cell_length_b   12.08704148
_cell_length_c   7.43515664
_cell_angle_alpha   90.00000000
_cell_angle_beta   120.87424932
_cell_angle_gamma   90.00000000
_symmetry_Int_Tables_number   14
_chemical_formula_moiety   'C9 H8 O4'
_chemical_formula_sum   'H32 C36 O16'
_cell_volume   851.99723366
_cell_formula_units_Z   4
loop_
 _symmetry_equiv_pos_site_id
 _symmetry_equiv_pos_as_xyz
  1  'x, y, z'
  2  '-x, -y, -z'
  3  '-x, y+1/2, -z+1/2'
  4  'x, -y+1/2, z+1/2'
loop_
 _atom_site_type_symbol
 _atom_site_label
 _atom_site_symmetry_multiplicity
 _atom_site_fract_x
 _atom_site_fract_y
 _atom_site_fract_z
 _atom_site_occupancy
  H  H0  4  -0.14458732  0.32690753  -0.49363729  1
  H  H1  4  -0.05699174  0.13314395  -0.45083780  1
  H  H2  4  0.02675379  0.02018846  0.19286379  1
  H  H3  4  0.20102708  0.09541251  -0.24945233  1
  H  H4  4  0.30968667  0.85216646  0.71194344  1
  H  H5  4  0.34424908  0.74394704  0.89960426  1
  H  H6  4  0.35588454  0.88659999  0.97212244  1
  H  H7  4  0.47328307  -0.00866944  0.70321346  1
  C  C8  4  -0.03241126  0.19087005  0.10333046  1
  C  C9  4  0.01716176  0.20095251  -0.37528978  1
  C  C10  4  0.06269228  0.10532165  0.20509807  1
  C  C11  4  0.16132944  0.17888708  -0.26004385  1
  C  C12  4  0.20796519  0.12562521  0.32845828  1
  C  C13  4  0.25572429  0.26554341  -0.16129794  1
  C  C14  4  0.29983112  0.03010562  0.44710324  1
  C  C15  4  0.37388113  0.67311388  0.37652669  1
  C  C16  4  0.47393042  0.33253677  0.55917027  1
  O  O17  4  0.26385481  -0.06626362  0.39470342  1
  O  O18  4  0.40059076  0.25120285  -0.07116992  1
  O  O19  4  0.41907719  0.05892389  0.62146263  1
  O  O20  4  0.42053617  0.40319693  0.61519914  1
