###############################################################################################
#
# CIF file generated by modified CIFWriter class 
# in pymatgen (v2025.03.10) https://pymatgen.org/
#
###############################################################################################
data_PBE+MBD_tight_71c2e26d52310bc
_symmetry_space_group_name_H-M   P2_12_12_1
_cell_length_a   15.82307988
_cell_length_b   8.64317570
_cell_length_c   6.29890230
_cell_angle_alpha   90.00000000
_cell_angle_beta   90.00000000
_cell_angle_gamma   90.00000000
_symmetry_Int_Tables_number   19
_chemical_formula_moiety   'C9 H8 O4'
_chemical_formula_sum   'H32 C36 O16'
_cell_volume   861.44833066
_cell_formula_units_Z   4
loop_
 _symmetry_equiv_pos_site_id
 _symmetry_equiv_pos_as_xyz
  1  'x, y, z'
  2  'x+1/2, -y+1/2, -z'
  3  '-x+1/2, -y, z+1/2'
  4  '-x, y+1/2, -z+1/2'
loop_
 _atom_site_type_symbol
 _atom_site_label
 _atom_site_symmetry_multiplicity
 _atom_site_fract_x
 _atom_site_fract_y
 _atom_site_fract_z
 _atom_site_occupancy
  H  H0  4  -0.16235939  0.50070565  0.25152852  1
  H  H1  4  -0.15658591  0.47885315  0.53717341  1
  H  H2  4  -0.13643830  0.66007793  0.41618191  1
  H  H3  4  0.03683944  0.87039034  0.49001505  1
  H  H4  4  0.06116964  0.19752912  0.57392886  1
  H  H5  4  0.17836335  0.66125376  0.13954289  1
  H  H6  4  0.21271176  0.12764016  0.61047649  1
  H  H7  4  0.22428841  0.38708591  0.13300549  1
  C  C8  4  -0.12915311  0.53434161  0.39687891  1
  C  C9  4  -0.03717105  0.49970911  0.37662663  1
  C  C10  4  0.08494916  0.44137887  0.57937997  1
  C  C11  4  0.10935674  0.28704334  0.58618362  1
  C  C12  4  0.12495377  0.73047615  0.57981973  1
  C  C13  4  0.14427369  0.56203200  0.59670979  1
  C  C14  4  0.19452872  0.24913777  0.60741476  1
  C  C15  4  0.22946746  0.52016191  0.62031705  1
  C  C16  4  0.24526902  0.63372578  0.12409886  1
  O  O17  4  -0.00203891  0.46993412  0.56917803  1
  O  O18  4  0.00343358  0.49772827  0.21154393  1
  O  O19  4  0.04409280  0.76022290  0.53091169  1
  O  O20  4  0.17831984  0.83199957  0.60165770  1
