###############################################################################################
#
# CIF file generated by modified CIFWriter class 
# in pymatgen (v2025.03.10) https://pymatgen.org/
#
###############################################################################################
data_PBE+MBD_tight_738e821f4dc7a5d
_symmetry_space_group_name_H-M   P4_2
_cell_length_a   14.20418438
_cell_length_b   14.20418438
_cell_length_c   5.38508509
_cell_angle_alpha   90.00000000
_cell_angle_beta   90.00000000
_cell_angle_gamma   90.00000000
_symmetry_Int_Tables_number   77
_chemical_formula_moiety   'C9 H8 O4'
_chemical_formula_sum   'H32 C36 O16'
_cell_volume   1086.48859686
_cell_formula_units_Z   4
loop_
 _symmetry_equiv_pos_site_id
 _symmetry_equiv_pos_as_xyz
  1  'x, y, z'
  2  '-y, x, z+1/2'
  3  '-x, -y, z'
  4  'y, -x, z+1/2'
loop_
 _atom_site_type_symbol
 _atom_site_label
 _atom_site_symmetry_multiplicity
 _atom_site_fract_x
 _atom_site_fract_y
 _atom_site_fract_z
 _atom_site_occupancy
  H  H0  4  -0.17822806  0.60806034  0.44466235  1
  H  H1  4  -0.08680308  0.52348740  0.49904004  1
  H  H2  4  -0.07691845  0.63786696  0.62803167  1
  H  H3  4  -0.01513794  0.85719886  0.46364832  1
  H  H4  4  0.13237296  0.51691595  -0.03501850  1
  H  H5  4  0.14440322  0.19037508  0.31731032  1
  H  H6  4  0.24373141  0.56663108  -0.36739209  1
  H  H7  4  0.26075593  0.27201757  0.05965978  1
  C  C8  4  -0.10228647  0.59823547  0.46635634  1
  C  C9  4  -0.05329928  0.63012809  0.23618143  1
  C  C10  4  0.07132663  0.83273107  0.18801302  1
  C  C11  4  0.09994479  0.65808154  0.07563913  1
  C  C12  4  0.11525496  0.75523615  0.03976257  1
  C  C13  4  0.14617973  0.59124401  -0.06885128  1
  C  C14  4  0.17786444  0.78123021  -0.14988739  1
  C  C15  4  0.20840008  0.61956871  -0.25433400  1
  C  C16  4  0.22415644  0.71513227  -0.29568109  1
  O  O17  4  -0.09008521  0.65710620  0.04570028  1
  O  O18  4  0.01770723  0.80361656  0.37408624  1
  O  O19  4  0.04261555  0.62293769  0.26410067  1
  O  O20  4  0.08312767  0.08406936  0.64452875  1
