###############################################################################################
#
# CIF file generated by modified CIFWriter class 
# in pymatgen (v2025.03.10) https://pymatgen.org/
#
###############################################################################################
data_PBE+MBD_tight_75d8a015ac43f0b
_symmetry_space_group_name_H-M   Cc
_cell_length_a   5.64511137
_cell_length_b   19.02453974
_cell_length_c   8.02929498
_cell_angle_alpha   90.00000000
_cell_angle_beta   84.90509216
_cell_angle_gamma   90.00000000
_symmetry_Int_Tables_number   9
_chemical_formula_moiety   'C9 H8 O4'
_chemical_formula_sum   'H32 C36 O16'
_cell_volume   858.90429277
_cell_formula_units_Z   4
loop_
 _symmetry_equiv_pos_site_id
 _symmetry_equiv_pos_as_xyz
  1  'x, y, z'
  2  'x, -y, z+1/2'
  3  'x+1/2, y+1/2, z'
  4  'x+1/2, -y+1/2, z+1/2'
loop_
 _atom_site_type_symbol
 _atom_site_label
 _atom_site_symmetry_multiplicity
 _atom_site_fract_x
 _atom_site_fract_y
 _atom_site_fract_z
 _atom_site_occupancy
  H  H0  4  -0.19851562  0.58711394  0.23602128  1
  H  H1  4  -0.09496680  0.31441396  0.53786494  1
  H  H2  4  0.15292837  0.53561586  1.10268398  1
  H  H3  4  0.27063443  0.24288525  0.57067098  1
  H  H4  4  0.51116800  0.36689000  1.42092708  1
  H  H5  4  0.51724622  0.73158673  0.30340717  1
  H  H6  4  0.56217901  0.44404935  1.29774257  1
  H  H7  4  0.73500897  0.63136342  0.74620570  1
  C  C8  4  -0.04178687  0.38057689  0.74865578  1
  C  C9  4  0.01596252  0.32537552  0.63889548  1
  C  C10  4  0.03514106  0.46346760  0.97223535  1
  C  C11  4  0.10303525  0.60172985  0.37627861  1
  C  C12  4  0.22015981  0.71430227  0.15683618  1
  C  C13  4  0.30276710  0.35572123  0.89612773  1
  C  C14  4  0.36071944  0.30020779  0.78670741  1
  C  C15  4  0.37151372  0.36387746  1.18393077  1
  C  C16  4  0.55707988  0.38631297  1.29388518  1
  O  O17  4  -0.16007767  0.49083520  0.97363256  1
  O  O18  4  0.17071380  0.65526222  0.72798814  1
  O  O19  4  0.21500661  0.49178410  1.05041501  1
  O  O20  4  0.45764294  0.63245792  0.51776655  1
