###############################################################################################
#
# CIF file generated by modified CIFWriter class 
# in pymatgen (v2025.03.10) https://pymatgen.org/
#
###############################################################################################
data_PBE+MBD_tight_76738969b02a56d
_symmetry_space_group_name_H-M   P2_12_12
_cell_length_a   6.77373415
_cell_length_b   19.78784080
_cell_length_c   6.58445449
_cell_angle_alpha   90.00000000
_cell_angle_beta   90.00000000
_cell_angle_gamma   90.00000000
_symmetry_Int_Tables_number   18
_chemical_formula_moiety   'C9 H8 O4'
_chemical_formula_sum   'H32 C36 O16'
_cell_volume   882.56429949
_cell_formula_units_Z   4
loop_
 _symmetry_equiv_pos_site_id
 _symmetry_equiv_pos_as_xyz
  1  'x, y, z'
  2  '-x, -y, z'
  3  'x+1/2, -y+1/2, -z'
  4  '-x+1/2, y+1/2, -z'
loop_
 _atom_site_type_symbol
 _atom_site_label
 _atom_site_symmetry_multiplicity
 _atom_site_fract_x
 _atom_site_fract_y
 _atom_site_fract_z
 _atom_site_occupancy
  H  H0  4  -0.18870408  0.43695282  0.64585886  1
  H  H1  4  -0.16734707  0.78868391  1.11903928  1
  H  H2  4  -0.14112484  0.72034166  0.80472148  1
  H  H3  4  -0.09005561  0.36216100  0.75565133  1
  H  H4  4  0.00545028  0.90050642  1.13947966  1
  H  H5  4  0.05179517  0.43678295  0.76159617  1
  H  H6  4  0.08062251  0.75938987  0.52195485  1
  H  H7  4  0.20123382  0.54130203  0.28018058  1
  C  C8  4  -0.07662772  0.80659544  0.99360223  1
  C  C9  4  -0.06042970  0.76777549  0.81758258  1
  C  C10  4  -0.05332175  0.40797847  0.66917349  1
  C  C11  4  0.02002708  0.86840343  1.00600693  1
  C  C12  4  0.03536011  0.38849343  0.47087463  1
  C  C13  4  0.06020093  0.78955796  0.65902001  1
  C  C14  4  0.13506926  0.89295414  0.84478928  1
  C  C15  4  0.15871578  0.85120998  0.67377499  1
  C  C16  4  0.21565876  0.96274860  0.86896053  1
  O  O17  4  -0.04771502  0.38831968  0.30619116  1
  O  O18  4  0.22736510  0.36862163  0.49471201  1
  O  O19  4  0.24036344  0.99572600  0.69296968  1
  O  O20  4  0.24667257  0.98827767  1.03468294  1
