###############################################################################################
#
# CIF file generated by modified CIFWriter class 
# in pymatgen (v2025.03.10) https://pymatgen.org/
#
###############################################################################################
data_PBE+MBD_tight_78219db9fbcf96a
_symmetry_space_group_name_H-M   P2/c
_cell_length_a   12.16156998
_cell_length_b   6.91934897
_cell_length_c   11.04048554
_cell_angle_alpha   90.00000000
_cell_angle_beta   80.45294403
_cell_angle_gamma   90.00000000
_symmetry_Int_Tables_number   13
_chemical_formula_moiety   'C9 H8 O4'
_chemical_formula_sum   'H32 C36 O16'
_cell_volume   916.19075636
_cell_formula_units_Z   4
loop_
 _symmetry_equiv_pos_site_id
 _symmetry_equiv_pos_as_xyz
  1  'x, y, z'
  2  '-x, -y, -z'
  3  '-x, y, -z+1/2'
  4  'x, -y, z+1/2'
loop_
 _atom_site_type_symbol
 _atom_site_label
 _atom_site_symmetry_multiplicity
 _atom_site_fract_x
 _atom_site_fract_y
 _atom_site_fract_z
 _atom_site_occupancy
  H  H0  4  -0.01760158  1.19081824  0.65282517  1
  H  H1  4  0.02288691  -0.16394226  -0.00749180  1
  H  H2  4  0.06485741  1.37396509  0.56937200  1
  H  H3  4  0.06843727  0.29119793  0.31110282  1
  H  H4  4  0.34279441  0.03643527  -0.15206927  1
  H  H5  4  0.42252969  0.66043702  0.96711254  1
  H  H6  4  0.42599322  0.38725599  0.21309251  1
  H  H7  4  0.46636696  0.17587177  0.65372792  1
  C  C8  4  0.05026371  -0.21767190  0.07566381  1
  C  C9  4  0.15575228  1.12299302  0.59932165  1
  C  C10  4  0.22167305  0.72298641  0.74646072  1
  C  C11  4  0.28192916  0.13094608  0.03097543  1
  C  C12  4  0.30304919  0.76541871  0.63432016  1
  C  C13  4  0.36313334  0.11499043  -0.07328395  1
  C  C14  4  0.41084324  0.30822369  0.13227507  1
  C  C15  4  0.46887059  0.19257457  -0.07344359  1
  C  C16  4  0.49391513  0.71520800  0.53091106  1
  O  O17  4  0.11305517  0.26048983  0.23132389  1
  O  O18  4  0.18070929  0.03777085  0.02614291  1
  O  O19  4  0.21196159  -0.17787204  0.17338799  1
  O  O20  4  0.24660179  0.32717812  0.34416766  1
