###############################################################################################
#
# CIF file generated by modified CIFWriter class 
# in pymatgen (v2025.03.10) https://pymatgen.org/
#
###############################################################################################
data_PBE+MBD_tight_785405fba567e1e
_symmetry_space_group_name_H-M   P2_1/c
_cell_length_a   6.51542099
_cell_length_b   13.34382019
_cell_length_c   10.07441043
_cell_angle_alpha   90.00000000
_cell_angle_beta   95.09894346
_cell_angle_gamma   90.00000000
_symmetry_Int_Tables_number   14
_chemical_formula_moiety   'C9 H8 O4'
_chemical_formula_sum   'H32 C36 O16'
_cell_volume   872.40925181
_cell_formula_units_Z   4
loop_
 _symmetry_equiv_pos_site_id
 _symmetry_equiv_pos_as_xyz
  1  'x, y, z'
  2  '-x, -y, -z'
  3  '-x, y+1/2, -z+1/2'
  4  'x, -y+1/2, z+1/2'
loop_
 _atom_site_type_symbol
 _atom_site_label
 _atom_site_symmetry_multiplicity
 _atom_site_fract_x
 _atom_site_fract_y
 _atom_site_fract_z
 _atom_site_occupancy
  H  H0  4  -0.02249480  0.03119988  0.36785340  1
  H  H1  4  -0.01681701  0.70798405  0.77198741  1
  H  H2  4  0.01590605  0.45413175  0.62685827  1
  H  H3  4  0.04821524  0.76859413  0.92802277  1
  H  H4  4  0.10543692  0.86247920  0.40518426  1
  H  H5  4  0.27499804  0.07838272  0.53407328  1
  H  H6  4  0.40161530  0.85981639  0.54785983  1
  H  H7  4  0.49706401  0.14013832  -0.13654264  1
  C  C8  4  0.09775836  0.71175689  0.85913882  1
  C  C9  4  0.12264830  0.05794855  0.33495011  1
  C  C10  4  0.14257217  0.43309257  0.69921619  1
  C  C11  4  0.28626750  0.08419812  0.42703720  1
  C  C12  4  0.30275630  0.73644872  0.81256219  1
  C  C13  4  0.32285021  0.11773055  0.00442797  1
  C  C14  4  0.32396270  0.10372785  0.15160508  1
  C  C15  4  0.46904679  0.38071283  0.88208104  1
  C  C16  4  0.48681407  0.37065729  0.74643734  1
  O  O17  4  0.16297156  0.37847439  0.43081700  1
  O  O18  4  0.32383787  0.66354927  0.29171781  1
  O  O19  4  0.43806348  0.67594588  0.79361718  1
  O  O20  4  0.48961382  0.87366438  1.03899357  1
