###############################################################################################
#
# CIF file generated by modified CIFWriter class 
# in pymatgen (v2025.03.10) https://pymatgen.org/
#
###############################################################################################
data_PBE+MBD_tight_78da7f38133d308
_symmetry_space_group_name_H-M   P4_3
_cell_length_a   11.12733424
_cell_length_b   11.12733424
_cell_length_c   7.54030833
_cell_angle_alpha   90.00000000
_cell_angle_beta   90.00000000
_cell_angle_gamma   90.00000000
_symmetry_Int_Tables_number   78
_chemical_formula_moiety   'C9 H8 O4'
_chemical_formula_sum   'H32 C36 O16'
_cell_volume   933.62263421
_cell_formula_units_Z   4
loop_
 _symmetry_equiv_pos_site_id
 _symmetry_equiv_pos_as_xyz
  1  'x, y, z'
  2  '-y, x, z+3/4'
  3  '-x, -y, z+1/2'
  4  'y, -x, z+1/4'
loop_
 _atom_site_type_symbol
 _atom_site_label
 _atom_site_symmetry_multiplicity
 _atom_site_fract_x
 _atom_site_fract_y
 _atom_site_fract_z
 _atom_site_occupancy
  H  H0  4  -0.03568438  0.33175907  0.94589522  1
  H  H1  4  0.05513721  0.10696694  0.49368942  1
  H  H2  4  0.12229176  0.67343859  0.82038965  1
  H  H3  4  0.12516045  0.57656507  1.00862874  1
  H  H4  4  0.12892432  0.13226508  0.18445978  1
  H  H5  4  0.22126646  0.32861947  0.09292733  1
  H  H6  4  0.22831931  0.49823495  0.30842386  1
  H  H7  4  0.25996686  0.64643681  0.93897402  1
  C  C8  4  0.05084503  0.26187524  0.75390220  1
  C  C9  4  0.09399584  0.19188771  0.45068756  1
  C  C10  4  0.09637980  0.28724304  0.57229065  1
  C  C11  4  0.13580663  0.20648174  0.27815444  1
  C  C12  4  0.14344634  0.39808521  0.51596684  1
  C  C13  4  0.17574068  0.60655742  0.89143498  1
  C  C14  4  0.18566025  0.31629007  0.22639707  1
  C  C15  4  0.18999625  0.41181274  0.34592289  1
  C  C16  4  0.20248824  0.49841161  0.78206160  1
  O  O17  4  -0.00976477  0.35543292  0.82674793  1
  O  O18  4  0.06409484  0.16606158  0.82943893  1
  O  O19  4  0.14103854  0.50056204  0.62271681  1
  O  O20  4  0.26806334  0.41608392  0.82364171  1
