###############################################################################################
#
# CIF file generated by modified CIFWriter class 
# in pymatgen (v2025.03.10) https://pymatgen.org/
#
###############################################################################################
data_PBE+MBD_tight_8646782c353540d
_symmetry_space_group_name_H-M   P4_3
_cell_length_a   6.61246676
_cell_length_b   6.61246676
_cell_length_c   20.45512807
_cell_angle_alpha   90.00000000
_cell_angle_beta   90.00000000
_cell_angle_gamma   90.00000000
_symmetry_Int_Tables_number   78
_chemical_formula_moiety   'C9 H8 O4'
_chemical_formula_sum   'H32 C36 O16'
_cell_volume   894.39467834
_cell_formula_units_Z   4
loop_
 _symmetry_equiv_pos_site_id
 _symmetry_equiv_pos_as_xyz
  1  'x, y, z'
  2  '-y, x, z+3/4'
  3  '-x, -y, z+1/2'
  4  'y, -x, z+1/4'
loop_
 _atom_site_type_symbol
 _atom_site_label
 _atom_site_symmetry_multiplicity
 _atom_site_fract_x
 _atom_site_fract_y
 _atom_site_fract_z
 _atom_site_occupancy
  H  H0  4  0.04171210  0.55870878  -0.03199020  1
  H  H1  4  0.13078426  -0.54316400  0.87018040  1
  H  H2  4  0.13172940  0.75888129  0.40587988  1
  H  H3  4  0.15471430  0.53131202  0.30763649  1
  H  H4  4  0.23087758  -0.53676347  0.78927506  1
  H  H5  4  0.29142502  1.36495963  0.46555537  1
  H  H6  4  0.36488328  0.36588803  -0.03626008  1
  H  H7  4  0.39123027  -0.60011735  0.85501066  1
  C  C8  4  -0.28832836  0.68170652  0.10126409  1
  C  C9  4  -0.10411359  0.29467214  0.17755545  1
  C  C10  4  -0.04497643  0.43820533  0.06125835  1
  C  C11  4  0.01133461  0.32075985  0.11561126  1
  C  C12  4  0.08347158  0.45697965  0.00765036  1
  C  C13  4  0.19881349  0.22087780  0.11320623  1
  C  C14  4  0.23287390  0.67595603  0.30884727  1
  C  C15  4  0.26268103  -0.50471618  0.84075169  1
  C  C16  4  0.26574740  0.35202292  0.00595633  1
  O  O17  4  -0.30755404  0.31128639  0.17145453  1
  O  O18  4  -0.23190951  0.53485029  0.05561779  1
  O  O19  4  -0.17481828  0.74478663  0.14260456  1
  O  O20  4  -0.02269391  0.25791391  0.22972875  1
