###############################################################################################
#
# CIF file generated by modified CIFWriter class 
# in pymatgen (v2025.03.10) https://pymatgen.org/
#
###############################################################################################
data_PBE+MBD_tight_86f2e0bfadbf3e7
_symmetry_space_group_name_H-M   P4
_cell_length_a   16.54434642
_cell_length_b   16.54434642
_cell_length_c   4.22608342
_cell_angle_alpha   90.00000000
_cell_angle_beta   90.00000000
_cell_angle_gamma   90.00000000
_symmetry_Int_Tables_number   75
_chemical_formula_moiety   'C9 H8 O4'
_chemical_formula_sum   'H32 C36 O16'
_cell_volume   1156.74410742
_cell_formula_units_Z   4
loop_
 _symmetry_equiv_pos_site_id
 _symmetry_equiv_pos_as_xyz
  1  'x, y, z'
  2  '-y, x, z'
  3  '-x, -y, z'
  4  'y, -x, z'
loop_
 _atom_site_type_symbol
 _atom_site_label
 _atom_site_symmetry_multiplicity
 _atom_site_fract_x
 _atom_site_fract_y
 _atom_site_fract_z
 _atom_site_occupancy
  H  H0  4  -0.19135959  0.62243138  0.41731029  1
  H  H1  4  -0.12874780  0.75501498  0.54911305  1
  H  H2  4  -0.11811437  0.52594306  0.06747136  1
  H  H3  4  0.01481416  0.56701098  -0.16895184  1
  H  H4  4  0.10587442  0.88130524  0.41536886  1
  H  H5  4  0.20976765  0.73027095  -0.39164902  1
  H  H6  4  0.24810259  0.25242921  -0.01517259  1
  H  H7  4  0.27688353  0.65871858  -0.20591916  1
  C  C8  4  -0.13298588  0.63894378  0.31680097  1
  C  C9  4  -0.09838221  0.71313624  0.38999300  1
  C  C10  4  -0.09190572  0.58482709  0.12070938  1
  C  C11  4  -0.02211788  0.73531715  0.27282141  1
  C  C12  4  -0.01710626  0.60634646  -0.00464945  1
  C  C13  4  0.01115402  0.81464352  0.37873992  1
  C  C14  4  0.01743579  0.68048273  0.07179897  1
  C  C15  4  0.15923848  0.66416391  -0.00138019  1
  C  C16  4  0.22902329  0.70328660  -0.16776983  1
  O  O17  4  -0.03202998  0.86651895  0.50391451  1
  O  O18  4  0.08880277  0.70334316  -0.07677056  1
  O  O19  4  0.08968778  0.82460661  0.34127797  1
  O  O20  4  0.16305416  0.60796434  0.18211099  1
