###############################################################################################
#
# CIF file generated by modified CIFWriter class 
# in pymatgen (v2025.03.10) https://pymatgen.org/
#
###############################################################################################
data_PBE+MBD_tight_8712b8b076f3787
_symmetry_space_group_name_H-M   C2
_cell_length_a   12.38660017
_cell_length_b   9.50566411
_cell_length_c   7.07539613
_cell_angle_alpha   90.00000000
_cell_angle_beta   96.68733439
_cell_angle_gamma   90.00000000
_symmetry_Int_Tables_number   5
_chemical_formula_moiety   'C9 H8 O4'
_chemical_formula_sum   'H32 C36 O16'
_cell_volume   827.40946953
_cell_formula_units_Z   4
loop_
 _symmetry_equiv_pos_site_id
 _symmetry_equiv_pos_as_xyz
  1  'x, y, z'
  2  '-x, y, -z'
  3  'x+1/2, y+1/2, z'
  4  '-x+1/2, y+1/2, -z'
loop_
 _atom_site_type_symbol
 _atom_site_label
 _atom_site_symmetry_multiplicity
 _atom_site_fract_x
 _atom_site_fract_y
 _atom_site_fract_z
 _atom_site_occupancy
  H  H0  4  0.03197666  0.59457510  0.20870272  1
  H  H1  4  0.04009985  0.98098596  0.69892682  1
  H  H2  4  0.04458348  0.78019390  0.16865237  1
  H  H3  4  0.07656838  0.24378058  0.60972638  1
  H  H4  4  0.09515419  0.33980513  -0.00057954  1
  H  H5  4  0.10113555  1.05265893  1.03367978  1
  H  H6  4  0.15637785  0.66668004  0.14800265  1
  H  H7  4  0.21711571  0.47418408  -0.18896073  1
  C  C8  4  0.08628423  0.68560611  0.22663792  1
  C  C9  4  0.12006876  0.95102931  0.76767994  1
  C  C10  4  0.12089402  0.27548951  0.36195652  1
  C  C11  4  0.12705395  0.70183872  0.43248012  1
  C  C12  4  0.15431418  0.98945185  0.95509652  1
  C  C13  4  0.17585926  0.37074245  0.06364552  1
  C  C14  4  0.18811581  0.87349517  0.66394164  1
  C  C15  4  0.20643580  0.33581470  0.25566203  1
  C  C16  4  0.24396675  0.44647861  -0.04167775  1
  O  O17  4  0.02990926  0.24347418  0.27919009  1
  O  O18  4  0.14149862  0.60825443  0.54848352  1
  O  O19  4  0.14521558  0.26433462  0.54788999  1
  O  O20  4  0.14669550  0.84191638  0.47752542  1
