###############################################################################################
#
# CIF file generated by modified CIFWriter class 
# in pymatgen (v2025.03.10) https://pymatgen.org/
#
###############################################################################################
data_PBE+MBD_tight_8723131ff76e2cd
_symmetry_space_group_name_H-M   P4
_cell_length_a   12.30437280
_cell_length_b   12.30437280
_cell_length_c   7.44191316
_cell_angle_alpha   90.00000000
_cell_angle_beta   90.00000000
_cell_angle_gamma   90.00000000
_symmetry_Int_Tables_number   75
_chemical_formula_moiety   'C9 H8 O4'
_chemical_formula_sum   'H32 C36 O16'
_cell_volume   1126.68771847
_cell_formula_units_Z   4
loop_
 _symmetry_equiv_pos_site_id
 _symmetry_equiv_pos_as_xyz
  1  'x, y, z'
  2  '-y, x, z'
  3  '-x, -y, z'
  4  'y, -x, z'
loop_
 _atom_site_type_symbol
 _atom_site_label
 _atom_site_symmetry_multiplicity
 _atom_site_fract_x
 _atom_site_fract_y
 _atom_site_fract_z
 _atom_site_occupancy
  H  H0  4  -0.08994809  0.31198425  0.64469252  1
  H  H1  4  -0.01172872  0.40289747  0.37704873  1
  H  H2  4  0.03355472  0.22181200  0.86757336  1
  H  H3  4  0.20319455  0.46833109  -0.07816883  1
  H  H4  4  0.22887948  0.76709926  0.82060944  1
  H  H5  4  0.27890346  0.54417357  0.08054867  1
  H  H6  4  0.34136966  0.43560359  -0.04687663  1
  H  H7  4  0.37356793  0.52932594  0.44829437  1
  C  C8  4  -0.00232817  0.31197004  0.62506089  1
  C  C9  4  0.04113485  0.36433207  0.47556039  1
  C  C10  4  0.06658529  0.26230738  0.74937421  1
  C  C11  4  0.15308287  0.36934979  0.45134614  1
  C  C12  4  0.17817405  0.26538234  0.72279503  1
  C  C13  4  0.22414821  0.31932644  0.57436456  1
  C  C14  4  0.23676370  0.38076694  0.16189778  1
  C  C15  4  0.26798862  0.46302682  0.02302167  1
  C  C16  4  0.31717128  0.65577173  0.56433456  1
  O  O17  4  0.18938802  0.43202924  0.30752153  1
  O  O18  4  0.24804398  0.28329595  0.15259433  1
  O  O19  4  0.25809104  0.59890763  0.65631816  1
  O  O20  4  0.38746950  0.60923339  0.44453830  1
