###############################################################################################
#
# CIF file generated by modified CIFWriter class 
# in pymatgen (v2025.03.10) https://pymatgen.org/
#
###############################################################################################
data_PBE+MBD_tight_877b4b8c443ba5c
_symmetry_space_group_name_H-M   P2_1/c
_cell_length_a   11.24518691
_cell_length_b   7.50763952
_cell_length_c   10.77867397
_cell_angle_alpha   90.00000000
_cell_angle_beta   96.38823212
_cell_angle_gamma   90.00000000
_symmetry_Int_Tables_number   14
_chemical_formula_moiety   'C9 H8 O4'
_chemical_formula_sum   'H32 C36 O16'
_cell_volume   904.33719702
_cell_formula_units_Z   4
loop_
 _symmetry_equiv_pos_site_id
 _symmetry_equiv_pos_as_xyz
  1  'x, y, z'
  2  '-x, -y, -z'
  3  '-x, y+1/2, -z+1/2'
  4  'x, -y+1/2, z+1/2'
loop_
 _atom_site_type_symbol
 _atom_site_label
 _atom_site_symmetry_multiplicity
 _atom_site_fract_x
 _atom_site_fract_y
 _atom_site_fract_z
 _atom_site_occupancy
  H  H0  4  0.02060132  0.56723688  0.60603014  1
  H  H1  4  0.04051968  0.89719393  0.60652684  1
  H  H2  4  0.15125995  0.38469197  0.75711975  1
  H  H3  4  0.19569204  1.04183328  0.75563821  1
  H  H4  4  0.35933555  0.18111253  1.11962024  1
  H  H5  4  0.37482399  0.40025005  1.18062734  1
  H  H6  4  0.46198541  1.16214161  0.56096395  1
  H  H7  4  0.46518201  0.89306907  1.06926460  1
  C  C8  4  0.08681958  0.63207622  0.67262236  1
  C  C9  4  0.09822583  0.81714849  0.67233766  1
  C  C10  4  0.15920439  0.97106025  0.25786204  1
  C  C11  4  0.18457010  0.60218963  0.25604008  1
  C  C12  4  0.24276770  0.61131414  0.84456730  1
  C  C13  4  0.25850860  0.70249910  0.34344211  1
  C  C14  4  0.27627177  1.11577829  0.50223168  1
  C  C15  4  0.35627337  0.60731205  0.42044832  1
  C  C16  4  0.37498212  0.32002530  1.09520361  1
  O  O17  4  0.17236717  0.33899602  0.99447036  1
  O  O18  4  0.32007524  0.98776023  0.42672177  1
  O  O19  4  0.38811094  0.66889758  0.53420536  1
  O  O20  4  0.40576485  0.47675336  0.37706480  1
