###############################################################################################
#
# CIF file generated by modified CIFWriter class 
# in pymatgen (v2025.03.10) https://pymatgen.org/
#
###############################################################################################
data_PBE+MBD_tight_8788731becb04e3
_symmetry_space_group_name_H-M   Pna2_1
_cell_length_a   13.56611052
_cell_length_b   8.66118968
_cell_length_c   6.93959204
_cell_angle_alpha   90.00000000
_cell_angle_beta   90.00000000
_cell_angle_gamma   90.00000000
_symmetry_Int_Tables_number   33
_chemical_formula_moiety   'C9 H8 O4'
_chemical_formula_sum   'H32 C36 O16'
_cell_volume   815.39274053
_cell_formula_units_Z   4
loop_
 _symmetry_equiv_pos_site_id
 _symmetry_equiv_pos_as_xyz
  1  'x, y, z'
  2  '-x, -y, z+1/2'
  3  '-x+1/2, y+1/2, z+1/2'
  4  'x+1/2, -y+1/2, z'
loop_
 _atom_site_type_symbol
 _atom_site_label
 _atom_site_symmetry_multiplicity
 _atom_site_fract_x
 _atom_site_fract_y
 _atom_site_fract_z
 _atom_site_occupancy
  H  H0  4  -0.07482715  0.27016363  0.22646871  1
  H  H1  4  -0.03312927  0.08051930  -0.02800967  1
  H  H2  4  0.05005393  0.43425596  0.78238102  1
  H  H3  4  0.12622086  0.75501054  1.22912580  1
  H  H4  4  0.13601726  -0.03416269  -0.03848171  1
  H  H5  4  0.15309119  0.59117630  1.37854629  1
  H  H6  4  0.22873514  0.75975848  1.38548703  1
  H  H7  4  0.24208683  0.53316493  0.71529369  1
  C  C8  4  -0.00174491  0.21824957  0.22200915  1
  C  C9  4  0.02176921  0.11218921  0.07922948  1
  C  C10  4  0.03431932  0.37095603  0.51372890  1
  C  C11  4  0.06626261  0.25715730  0.36674194  1
  C  C12  4  0.11564878  0.04648151  0.07522371  1
  C  C13  4  0.15967205  0.18692446  0.36238915  1
  C  C14  4  0.18460325  0.08437846  0.21635594  1
  C  C15  4  0.18467901  0.68398450  1.29190267  1
  C  C16  4  0.24978227  0.61688725  1.13991064  1
  O  O17  4  -0.02786429  0.47199808  0.47861148  1
  O  O18  4  0.07497269  0.35484874  0.68587621  1
  O  O19  4  0.21611385  -0.01221974  0.63683380  1
  O  O20  4  0.23009368  0.22608462  0.49995329  1
