###############################################################################################
#
# CIF file generated by modified CIFWriter class 
# in pymatgen (v2025.03.10) https://pymatgen.org/
#
###############################################################################################
data_PBE+MBD_tight_87b248d6ea3b8cd
_symmetry_space_group_name_H-M   P2_1/c
_cell_length_a   11.07203838
_cell_length_b   6.89533689
_cell_length_c   11.05191705
_cell_angle_alpha   90.00000000
_cell_angle_beta   89.33068675
_cell_angle_gamma   90.00000000
_symmetry_Int_Tables_number   14
_chemical_formula_moiety   'C9 H8 O4'
_chemical_formula_sum   'H32 C36 O16'
_cell_volume   843.70584005
_cell_formula_units_Z   4
loop_
 _symmetry_equiv_pos_site_id
 _symmetry_equiv_pos_as_xyz
  1  'x, y, z'
  2  '-x, -y, -z'
  3  '-x, y+1/2, -z+1/2'
  4  'x, -y+1/2, z+1/2'
loop_
 _atom_site_type_symbol
 _atom_site_label
 _atom_site_symmetry_multiplicity
 _atom_site_fract_x
 _atom_site_fract_y
 _atom_site_fract_z
 _atom_site_occupancy
  H  H0  4  0.02674150  0.47548577  -0.11547600  1
  H  H1  4  0.02946580  0.40070813  -0.27092865  1
  H  H2  4  0.07576780  -0.14018552  -0.01223636  1
  H  H3  4  0.15300182  -0.03178907  0.28969114  1
  H  H4  4  0.18123822  -0.40367765  0.10218130  1
  H  H5  4  0.37653668  -0.33428884  0.20040617  1
  H  H6  4  0.42907811  0.49782925  -0.07236561  1
  H  H7  4  0.47630424  0.51488491  0.66875155  1
  C  C8  4  0.08368957  0.07806044  0.31015045  1
  C  C9  4  0.14722930  0.26237550  0.34183063  1
  C  C10  4  0.16472362  0.61625300  0.52617281  1
  C  C11  4  0.21883975  0.43535966  0.51356644  1
  C  C12  4  0.22271425  -0.26159202  0.09115086  1
  C  C13  4  0.33332459  0.72363404  0.64566282  1
  C  C14  4  0.33376452  0.10177075  0.06070042  1
  C  C15  4  0.38852528  -0.04433448  0.12935684  1
  C  C16  4  0.40276262  0.21673937  0.53900709  1
  O  O17  4  0.15126229  0.21651019  -0.03442490  1
  O  O18  4  0.19098263  0.37837922  0.27197559  1
  O  O19  4  0.37194904  0.11854402  0.44185479  1
  O  O20  4  0.48699488  0.33112399  0.10608291  1
