###############################################################################################
#
# CIF file generated by modified CIFWriter class 
# in pymatgen (v2025.03.10) https://pymatgen.org/
#
###############################################################################################
data_PBE+MBD_tight_8879896470a87b4
_symmetry_space_group_name_H-M   P2_1/c
_cell_length_a   6.29839877
_cell_length_b   8.62569285
_cell_length_c   16.08129657
_cell_angle_alpha   90.00000000
_cell_angle_beta   100.07957307
_cell_angle_gamma   90.00000000
_symmetry_Int_Tables_number   14
_chemical_formula_moiety   'C9 H8 O4'
_chemical_formula_sum   'H32 C36 O16'
_cell_volume   860.18106601
_cell_formula_units_Z   4
loop_
 _symmetry_equiv_pos_site_id
 _symmetry_equiv_pos_as_xyz
  1  'x, y, z'
  2  '-x, -y, -z'
  3  '-x, y+1/2, -z+1/2'
  4  'x, -y+1/2, z+1/2'
loop_
 _atom_site_type_symbol
 _atom_site_label
 _atom_site_symmetry_multiplicity
 _atom_site_fract_x
 _atom_site_fract_y
 _atom_site_fract_z
 _atom_site_occupancy
  H  H0  4  0.13807955  0.01681073  0.09464846  1
  H  H1  4  0.19899154  0.30333986  0.31100593  1
  H  H2  4  0.23030127  0.37462498  0.46233018  1
  H  H3  4  0.25658344  -0.11110409  0.52720809  1
  H  H4  4  0.25706889  0.16406090  0.57197303  1
  H  H5  4  0.27833087  -0.16157623  0.11387388  1
  H  H6  4  0.28094948  -0.37035005  0.28769003  1
  H  H7  4  0.42097398  0.00261467  0.08735697  1
  C  C8  4  0.21119121  0.05935839  0.33566925  1
  C  C9  4  0.21150310  0.21414027  0.35954955  1
  C  C10  4  0.22603021  -0.06109776  0.39542446  1
  C  C11  4  0.22840298  0.25273006  0.44459067  1
  C  C12  4  0.23544941  -0.22983577  0.37633931  1
  C  C13  4  0.24227954  -0.01856337  0.48055089  1
  C  C14  4  0.24356102  0.13581820  0.50521287  1
  C  C15  4  0.29377869  -0.03515105  0.12129169  1
  C  C16  4  0.35660441  -0.00032597  0.21313533  1
  O  O17  4  0.18081399  0.03017577  0.24876192  1
  O  O18  4  0.24144476  -0.33125041  0.43008691  1
  O  O19  4  0.24248857  -0.26010251  0.29510446  1
  O  O20  4  0.45959035  0.50144876  0.24678703  1
