###############################################################################################
#
# CIF file generated by modified CIFWriter class 
# in pymatgen (v2025.03.10) https://pymatgen.org/
#
###############################################################################################
data_PBE+MBD_tight_8a87a3cbbcce979
_symmetry_space_group_name_H-M   P2_1/c
_cell_length_a   9.51782442
_cell_length_b   7.30367180
_cell_length_c   12.26533201
_cell_angle_alpha   90.00000000
_cell_angle_beta   86.35249259
_cell_angle_gamma   90.00000000
_symmetry_Int_Tables_number   14
_chemical_formula_moiety   'C9 H8 O4'
_chemical_formula_sum   'H32 C36 O16'
_cell_volume   850.89821670
_cell_formula_units_Z   4
loop_
 _symmetry_equiv_pos_site_id
 _symmetry_equiv_pos_as_xyz
  1  'x, y, z'
  2  '-x, -y, -z'
  3  '-x, y+1/2, -z+1/2'
  4  'x, -y+1/2, z+1/2'
loop_
 _atom_site_type_symbol
 _atom_site_label
 _atom_site_symmetry_multiplicity
 _atom_site_fract_x
 _atom_site_fract_y
 _atom_site_fract_z
 _atom_site_occupancy
  H  H0  4  -0.17169815  0.51621133  0.65343250  1
  H  H1  4  -0.13402155  0.84869643  0.60984794  1
  H  H2  4  0.03538508  1.19032369  0.15717073  1
  H  H3  4  0.11120427  0.53057070  0.07849607  1
  H  H4  4  0.36054264  0.21716240  0.34621351  1
  H  H5  4  0.41326226  -0.01558721  0.35112722  1
  H  H6  4  0.41968655  0.37455197  0.97059008  1
  H  H7  4  0.49764192  -0.12854017  0.84327326  1
  C  C8  4  -0.06600649  0.57057529  0.63628943  1
  C  C9  4  -0.04479553  0.75581121  0.61264625  1
  C  C10  4  0.04938892  1.04529888  0.13930953  1
  C  C11  4  0.09112361  0.67542758  0.09402342  1
  C  C12  4  0.18788024  0.98053125  0.12103880  1
  C  C13  4  0.20546422  0.70745510  0.59924396  1
  C  C14  4  0.30367933  1.11631979  0.13067151  1
  C  C15  4  0.42063555  0.68023577  0.15823530  1
  C  C16  4  0.43474761  0.12229786  0.38161440  1
  O  O17  4  0.28158587  1.28022653  0.14584105  1
  O  O18  4  0.33856193  0.78387480  0.57485761  1
  O  O19  4  0.37867601  0.69656620  0.25434287  1
  O  O20  4  0.43281870  1.04353103  0.12456230  1
