###############################################################################################
#
# CIF file generated by modified CIFWriter class 
# in pymatgen (v2025.03.10) https://pymatgen.org/
#
###############################################################################################
data_PBE+MBD_tight_8b98bbc5b1238c4
_symmetry_space_group_name_H-M   P4_1
_cell_length_a   10.11585707
_cell_length_b   10.11585707
_cell_length_c   9.05460570
_cell_angle_alpha   90.00000000
_cell_angle_beta   90.00000000
_cell_angle_gamma   90.00000000
_symmetry_Int_Tables_number   76
_chemical_formula_moiety   'C9 H8 O4'
_chemical_formula_sum   'H32 C36 O16'
_cell_volume   926.56290948
_cell_formula_units_Z   4
loop_
 _symmetry_equiv_pos_site_id
 _symmetry_equiv_pos_as_xyz
  1  'x, y, z'
  2  '-y, x, z+1/4'
  3  '-x, -y, z+1/2'
  4  'y, -x, z+3/4'
loop_
 _atom_site_type_symbol
 _atom_site_label
 _atom_site_symmetry_multiplicity
 _atom_site_fract_x
 _atom_site_fract_y
 _atom_site_fract_z
 _atom_site_occupancy
  H  H0  4  -0.10840864  0.76295083  -0.03787118  1
  H  H1  4  -0.06115663  0.82657169  0.22414095  1
  H  H2  4  0.01539984  0.57790998  -0.15283358  1
  H  H3  4  0.10973612  0.70250209  0.36594974  1
  H  H4  4  0.12624580  0.75066812  0.67723702  1
  H  H5  4  0.23625558  0.62006991  0.72587012  1
  H  H6  4  0.26382794  0.70535847  0.56027547  1
  H  H7  4  0.43206178  0.56293865  1.02433689  1
  C  C8  4  -0.03292995  0.71132164  0.02552852  1
  C  C9  4  -0.00678800  0.74628424  0.17175811  1
  C  C10  4  0.03679027  0.60842088  -0.04015836  1
  C  C11  4  0.08957478  0.67857034  0.25085131  1
  C  C12  4  0.13543009  0.54347116  0.03818647  1
  C  C13  4  0.16496804  0.57803939  0.18482544  1
  C  C14  4  0.18921568  0.31590637  0.00749972  1
  C  C15  4  0.22930736  0.71811333  0.67385398  1
  C  C16  4  0.26955068  0.51665424  0.27756875  1
  O  O17  4  0.11064659  0.28357539  0.10166164  1
  O  O18  4  0.20575032  0.44617209  -0.03680546  1
  O  O19  4  0.26677681  0.51615405  0.41189424  1
  O  O20  4  0.37206979  0.46321421  0.20036956  1
