###############################################################################################
#
# CIF file generated by modified CIFWriter class 
# in pymatgen (v2025.03.10) https://pymatgen.org/
#
###############################################################################################
data_PBE+MBD_tight_8c1d8fae0a9b6a2
_symmetry_space_group_name_H-M   P2_1/c
_cell_length_a   15.95366161
_cell_length_b   8.08760111
_cell_length_c   7.20333206
_cell_angle_alpha   90.00000000
_cell_angle_beta   63.64983675
_cell_angle_gamma   90.00000000
_symmetry_Int_Tables_number   14
_chemical_formula_moiety   'C9 H8 O4'
_chemical_formula_sum   'H32 C36 O16'
_cell_volume   832.85448044
_cell_formula_units_Z   4
loop_
 _symmetry_equiv_pos_site_id
 _symmetry_equiv_pos_as_xyz
  1  'x, y, z'
  2  '-x, -y, -z'
  3  '-x, y+1/2, -z+1/2'
  4  'x, -y+1/2, z+1/2'
loop_
 _atom_site_type_symbol
 _atom_site_label
 _atom_site_symmetry_multiplicity
 _atom_site_fract_x
 _atom_site_fract_y
 _atom_site_fract_z
 _atom_site_occupancy
  H  H0  4  -0.03874277  0.41734329  0.67458168  1
  H  H1  4  -0.02895635  0.53735483  0.86801208  1
  H  H2  4  -0.01986772  0.18088146  0.37714033  1
  H  H3  4  0.18183889  -0.29535767  0.34057933  1
  H  H4  4  0.23850530  0.08905685  0.59581515  1
  H  H5  4  0.40903498  0.45250302  -0.08771013  1
  H  H6  4  0.44815993  0.57518294  0.41396605  1
  H  H7  4  0.48337929  0.79404371  1.19125156  1
  C  C8  4  -0.00265972  0.07451868  0.27300191  1
  C  C9  4  0.10022386  0.05701636  0.14039762  1
  C  C10  4  0.24858380  0.14697169  0.10974871  1
  C  C11  4  0.27685880  -0.16563551  0.13092770  1
  C  C12  4  0.28538105  0.19493988  0.55440613  1
  C  C13  4  0.30660126  0.49262264  0.56402921  1
  C  C14  4  0.38178878  0.17277969  0.44915523  1
  C  C15  4  0.40325189  0.46686789  0.45085082  1
  C  C16  4  0.44105735  0.30970856  0.39401832  1
  O  O17  4  0.13527461  -0.02152935  -0.02088633  1
  O  O18  4  0.15037767  0.35951143  0.72017670  1
  O  O19  4  0.19257947  -0.17792696  0.29693154  1
  O  O20  4  0.32541171  -0.28579761  0.04803548  1
