###############################################################################################
#
# CIF file generated by modified CIFWriter class 
# in pymatgen (v2025.03.10) https://pymatgen.org/
#
###############################################################################################
data_PBE+MBD_tight_8d896fcc97d1fb1
_symmetry_space_group_name_H-M   Pna2_1
_cell_length_a   13.64526907
_cell_length_b   11.14417130
_cell_length_c   5.45487805
_cell_angle_alpha   90.00000000
_cell_angle_beta   90.00000000
_cell_angle_gamma   90.00000000
_symmetry_Int_Tables_number   33
_chemical_formula_moiety   'C9 H8 O4'
_chemical_formula_sum   'H32 C36 O16'
_cell_volume   829.49720802
_cell_formula_units_Z   4
loop_
 _symmetry_equiv_pos_site_id
 _symmetry_equiv_pos_as_xyz
  1  'x, y, z'
  2  '-x, -y, z+1/2'
  3  '-x+1/2, y+1/2, z+1/2'
  4  'x+1/2, -y+1/2, z'
loop_
 _atom_site_type_symbol
 _atom_site_label
 _atom_site_symmetry_multiplicity
 _atom_site_fract_x
 _atom_site_fract_y
 _atom_site_fract_z
 _atom_site_occupancy
  H  H0  4  0.03257845  0.04641664  0.32872371  1
  H  H1  4  0.04351271  0.47828132  0.10131063  1
  H  H2  4  0.05251284  0.79906584  0.41241192  1
  H  H3  4  0.07655002  0.33817392  -0.03454842  1
  H  H4  4  0.12834075  0.62968393  0.64593544  1
  H  H5  4  0.13513769  0.87697999  0.03796302  1
  H  H6  4  0.16803529  0.44639445  0.01585215  1
  H  H7  4  0.21486970  0.04223241  0.99974628  1
  C  C8  4  0.10029190  0.40906990  0.09213768  1
  C  C9  4  0.11299383  0.08985587  0.60867837  1
  C  C10  4  0.11820063  0.35646585  0.33973514  1
  C  C11  4  0.12093374  0.75872190  0.35105445  1
  C  C12  4  0.16316427  0.66419376  0.48064193  1
  C  C13  4  0.16676383  0.80307605  0.14199528  1
  C  C14  4  0.20270143  0.15566700  0.68466019  1
  C  C15  4  0.24573826  0.25282767  0.55925508  1
  C  C16  4  0.24949759  0.11473523  0.89857135  1
  O  O17  4  0.06334982  0.35842123  0.51441432  1
  O  O18  4  0.06488680  0.03106941  0.75890188  1
  O  O19  4  0.09219854  0.09551974  0.37176781  1
  O  O20  4  0.20920389  0.30290352  0.34515416  1
