###############################################################################################
#
# CIF file generated by modified CIFWriter class 
# in pymatgen (v2025.03.10) https://pymatgen.org/
#
###############################################################################################
data_PBE+MBD_tight_91197f3978e785c
_symmetry_space_group_name_H-M   P2_1/c
_cell_length_a   4.90795361
_cell_length_b   16.70084074
_cell_length_c   11.32736680
_cell_angle_alpha   90.00000000
_cell_angle_beta   107.98459640
_cell_angle_gamma   90.00000000
_symmetry_Int_Tables_number   14
_chemical_formula_moiety   'C9 H8 O4'
_chemical_formula_sum   'H32 C36 O16'
_cell_volume   883.10428540
_cell_formula_units_Z   4
loop_
 _symmetry_equiv_pos_site_id
 _symmetry_equiv_pos_as_xyz
  1  'x, y, z'
  2  '-x, -y, -z'
  3  '-x, y+1/2, -z+1/2'
  4  'x, -y+1/2, z+1/2'
loop_
 _atom_site_type_symbol
 _atom_site_label
 _atom_site_symmetry_multiplicity
 _atom_site_fract_x
 _atom_site_fract_y
 _atom_site_fract_z
 _atom_site_occupancy
  H  H0  4  -0.32755301  0.21587873  0.64942329  1
  H  H1  4  -0.31698952  -0.04046619  0.55065484  1
  H  H2  4  -0.02652118  0.31337077  0.80084036  1
  H  H3  4  0.23413490  1.08605236  0.14367934  1
  H  H4  4  0.36679123  0.86678829  0.08154432  1
  H  H5  4  0.45431161  0.22761564  0.43707837  1
  H  H6  4  0.49698222  0.61717160  0.22025744  1
  H  H7  4  0.49845344  1.15654823  0.13118577  1
  C  C8  4  -0.21903447  0.06781151  0.60546619  1
  C  C9  4  -0.11435374  0.19940641  0.70822716  1
  C  C10  4  -0.01855845  0.12130683  0.69655080  1
  C  C11  4  0.05266011  0.24673546  0.29356737  1
  C  C12  4  0.25528820  0.40032797  0.27397872  1
  C  C13  4  0.32248181  0.27000847  0.37035143  1
  C  C14  4  0.35722692  0.53583945  0.33574287  1
  C  C15  4  0.42348154  0.34675110  0.36023884  1
  C  C16  4  0.46035506  1.10381906  0.18087288  1
  O  O17  4  -0.44095664  0.09536789  0.52995779  1
  O  O18  4  -0.15227808  -0.00870717  0.61099160  1
  O  O19  4  0.20974695  0.53298186  0.40380821  1
  O  O20  4  0.38153631  0.02710656  0.76108682  1
