###############################################################################################
#
# CIF file generated by modified CIFWriter class 
# in pymatgen (v2025.03.10) https://pymatgen.org/
#
###############################################################################################
data_PBE+MBD_tight_9266fbec490976b
_symmetry_space_group_name_H-M   Pna2_1
_cell_length_a   13.64981913
_cell_length_b   15.16895119
_cell_length_c   4.47531307
_cell_angle_alpha   90.00000000
_cell_angle_beta   90.00000000
_cell_angle_gamma   90.00000000
_symmetry_Int_Tables_number   33
_chemical_formula_moiety   'C9 H8 O4'
_chemical_formula_sum   'H32 C36 O16'
_cell_volume   926.62896776
_cell_formula_units_Z   4
loop_
 _symmetry_equiv_pos_site_id
 _symmetry_equiv_pos_as_xyz
  1  'x, y, z'
  2  '-x, -y, z+1/2'
  3  '-x+1/2, y+1/2, z+1/2'
  4  'x+1/2, -y+1/2, z'
loop_
 _atom_site_type_symbol
 _atom_site_label
 _atom_site_symmetry_multiplicity
 _atom_site_fract_x
 _atom_site_fract_y
 _atom_site_fract_z
 _atom_site_occupancy
  H  H0  4  0.02771936  -0.16175137  0.34709048  1
  H  H1  4  0.04720429  0.11477520  0.26498758  1
  H  H2  4  0.05745269  0.47036587  0.46547391  1
  H  H3  4  0.07308111  0.27768767  0.31973001  1
  H  H4  4  0.08923908  -0.12990820  0.00954799  1
  H  H5  4  0.11537827  0.73353512  0.79528314  1
  H  H6  4  0.15629986  -0.18065770  0.30280486  1
  H  H7  4  0.24251306  0.33718974  0.33806090  1
  C  C8  4  0.09558441  -0.13556905  0.25244017  1
  C  C9  4  0.11370565  0.56390597  0.70852946  1
  C  C10  4  0.11667269  -0.04673173  0.38109326  1
  C  C11  4  0.12040837  0.14286121  0.27112857  1
  C  C12  4  0.13549084  0.23302586  0.30208814  1
  C  C13  4  0.19032843  0.70916677  0.78799398  1
  C  C14  4  0.20000366  0.08569075  0.24478981  1
  C  C15  4  0.20366868  0.61812418  0.74883167  1
  C  C16  4  0.23072395  0.26656480  0.31187059  1
  O  O17  4  0.03633943  0.58379635  0.83656500  1
  O  O18  4  0.08300938  -0.01647937  0.60921931  1
  O  O19  4  0.12284928  0.49777677  0.51815334  1
  O  O20  4  0.18403305  -0.00348318  0.20401759  1
