###############################################################################################
#
# CIF file generated by modified CIFWriter class 
# in pymatgen (v2025.03.10) https://pymatgen.org/
#
###############################################################################################
data_PBE+MBD_tight_949bd12e31a260f
_symmetry_space_group_name_H-M   P4
_cell_length_a   11.60759988
_cell_length_b   11.60759988
_cell_length_c   6.97775115
_cell_angle_alpha   90.00000000
_cell_angle_beta   90.00000000
_cell_angle_gamma   90.00000000
_symmetry_Int_Tables_number   75
_chemical_formula_moiety   'C9 H8 O4'
_chemical_formula_sum   'H32 C36 O16'
_cell_volume   940.15689494
_cell_formula_units_Z   4
loop_
 _symmetry_equiv_pos_site_id
 _symmetry_equiv_pos_as_xyz
  1  'x, y, z'
  2  '-y, x, z'
  3  '-x, -y, z'
  4  'y, -x, z'
loop_
 _atom_site_type_symbol
 _atom_site_label
 _atom_site_symmetry_multiplicity
 _atom_site_fract_x
 _atom_site_fract_y
 _atom_site_fract_z
 _atom_site_occupancy
  H  H0  4  -0.18990443  0.62870725  0.89673406  1
  H  H1  4  -0.10571370  0.51412413  0.79533974  1
  H  H2  4  -0.07785310  0.79194110  0.35651197  1
  H  H3  4  -0.04636778  0.60518291  0.97445988  1
  H  H4  4  -0.00377544  0.84481897  0.03757030  1
  H  H5  4  0.18070627  0.76519761  -0.08240676  1
  H  H6  4  0.29089456  0.40290989  0.52217470  1
  H  H7  4  0.29479668  0.63240962  0.12701121  1
  C  C8  4  -0.10399535  0.60233686  0.84979099  1
  C  C9  4  -0.06182959  0.68536489  0.70048987  1
  C  C10  4  0.00356169  0.75704663  0.30735541  1
  C  C11  4  0.04647555  0.78699293  0.12771016  1
  C  C12  4  0.06642141  0.68141567  0.42286370  1
  C  C13  4  0.15012224  0.74206530  0.06005513  1
  C  C14  4  0.17253633  0.63792754  0.35895891  1
  C  C15  4  0.21309725  0.66798415  0.17679530  1
  C  C16  4  0.24767100  0.56229607  0.47985338  1
  O  O17  4  -0.09808504  0.78176330  0.67505274  1
  O  O18  4  0.02720743  0.63679331  0.59571741  1
  O  O19  4  0.22925734  0.45089565  0.45547672  1
  O  O20  4  0.32365648  0.60103914  0.58530131  1
