###############################################################################################
#
# CIF file generated by modified CIFWriter class 
# in pymatgen (v2025.03.10) https://pymatgen.org/
#
###############################################################################################
data_PBE+MBD_tight_95a2305d991dd7c
_symmetry_space_group_name_H-M   P222
_cell_length_a   7.01279425
_cell_length_b   9.06820682
_cell_length_c   15.38791313
_cell_angle_alpha   90.00000000
_cell_angle_beta   90.00000000
_cell_angle_gamma   90.00000000
_symmetry_Int_Tables_number   16
_chemical_formula_moiety   'C9 H8 O4'
_chemical_formula_sum   'H32 C36 O16'
_cell_volume   978.57077095
_cell_formula_units_Z   4
loop_
 _symmetry_equiv_pos_site_id
 _symmetry_equiv_pos_as_xyz
  1  'x, y, z'
  2  '-x, -y, z'
  3  'x, -y, -z'
  4  '-x, y, -z'
loop_
 _atom_site_type_symbol
 _atom_site_label
 _atom_site_symmetry_multiplicity
 _atom_site_fract_x
 _atom_site_fract_y
 _atom_site_fract_z
 _atom_site_occupancy
  H  H0  4  0.13366961  0.36248006  0.32029486  1
  H  H1  4  0.22911187  0.36983812  0.42940008  1
  H  H2  4  0.24925317  0.07630267  0.95527024  1
  H  H3  4  0.24950828  0.44098971  0.06415566  1
  H  H4  4  0.25002660  -0.14939464  0.86261932  1
  H  H5  4  0.25200912  -0.11885143  0.70051426  1
  H  H6  4  0.25265147  0.12953820  0.63544266  1
  H  H7  4  0.38181982  0.36568277  0.33561162  1
  C  C8  4  0.24493814  0.42806959  0.64119157  1
  C  C9  4  0.24656624  0.40666522  0.36223367  1
  C  C10  4  0.24995416  0.08472751  0.88484459  1
  C  C11  4  0.25001104  0.35002102  0.91452292  1
  C  C12  4  0.25035672  -0.04036539  0.83291802  1
  C  C13  4  0.25038265  0.22759179  0.84998347  1
  C  C14  4  0.25124106  0.24244570  0.75830991  1
  C  C15  4  0.25142427  -0.02295071  0.74306085  1
  C  C16  4  0.25196547  0.11690297  0.70544039  1
  O  O17  4  0.23881520  0.34520759  0.57958818  1
  O  O18  4  0.24926299  0.48574836  0.88446757  1
  O  O19  4  0.25033851  0.32119232  0.99376276  1
  O  O20  4  0.25217216  0.38525350  0.72702861  1
