###############################################################################################
#
# CIF file generated by modified CIFWriter class 
# in pymatgen (v2025.03.10) https://pymatgen.org/
#
###############################################################################################
data_PBE+MBD_tight_98f018e9b2a7d8d
_symmetry_space_group_name_H-M   P2_1/c
_cell_length_a   12.21144904
_cell_length_b   6.43527024
_cell_length_c   11.47441403
_cell_angle_alpha   90.00000000
_cell_angle_beta   68.33925756
_cell_angle_gamma   90.00000000
_symmetry_Int_Tables_number   14
_chemical_formula_moiety   'C9 H8 O4'
_chemical_formula_sum   'H32 C36 O16'
_cell_volume   838.03178381
_cell_formula_units_Z   4
loop_
 _symmetry_equiv_pos_site_id
 _symmetry_equiv_pos_as_xyz
  1  'x, y, z'
  2  '-x, -y, -z'
  3  '-x, y+1/2, -z+1/2'
  4  'x, -y+1/2, z+1/2'
loop_
 _atom_site_type_symbol
 _atom_site_label
 _atom_site_symmetry_multiplicity
 _atom_site_fract_x
 _atom_site_fract_y
 _atom_site_fract_z
 _atom_site_occupancy
  H  H0  4  0.04441722  0.50276642  1.18578149  1
  H  H1  4  0.06854168  0.50770238  0.40170601  1
  H  H2  4  0.14188006  0.17192059  1.20104363  1
  H  H3  4  0.30757068  1.46271049  0.51266823  1
  H  H4  4  0.31661991  0.57601392  0.13498233  1
  H  H5  4  0.37547803  0.24346363  0.81480321  1
  H  H6  4  0.42460707  0.73681941  0.55811033  1
  H  H7  4  0.46602878  0.53429935  0.12147069  1
  C  C8  4  0.08913401  0.75753217  0.99597714  1
  C  C9  4  0.11768071  0.44452269  1.10535430  1
  C  C10  4  0.15476151  0.56273395  0.99447490  1
  C  C11  4  0.17211558  1.24155098  0.61339162  1
  C  C12  4  0.24959469  0.48568446  0.89082005  1
  C  C13  4  0.26489540  1.31564686  0.50882274  1
  C  C14  4  0.30321491  0.29790634  0.89760521  1
  C  C15  4  0.37090395  0.75612956  0.25890345  1
  C  C16  4  0.39722645  0.65096342  0.13559157  1
  O  O17  4  0.00750157  0.68605695  0.59324173  1
  O  O18  4  0.12152485  0.86310527  0.89038801  1
  O  O19  4  0.28986889  0.91241138  0.27543763  1
  O  O20  4  0.41269647  0.71378493  0.33700480  1
