###############################################################################################
#
# CIF file generated by modified CIFWriter class 
# in pymatgen (v2025.03.10) https://pymatgen.org/
#
###############################################################################################
data_PBE+MBD_tight_995fa774615045f
_symmetry_space_group_name_H-M   P2_1/c
_cell_length_a   6.00619798
_cell_length_b   11.31125261
_cell_length_c   12.93047012
_cell_angle_alpha   90.00000000
_cell_angle_beta   76.85967049
_cell_angle_gamma   90.00000000
_symmetry_Int_Tables_number   14
_chemical_formula_moiety   'C9 H8 O4'
_chemical_formula_sum   'H32 C36 O16'
_cell_volume   855.46382798
_cell_formula_units_Z   4
loop_
 _symmetry_equiv_pos_site_id
 _symmetry_equiv_pos_as_xyz
  1  'x, y, z'
  2  '-x, -y, -z'
  3  '-x, y+1/2, -z+1/2'
  4  'x, -y+1/2, z+1/2'
loop_
 _atom_site_type_symbol
 _atom_site_label
 _atom_site_symmetry_multiplicity
 _atom_site_fract_x
 _atom_site_fract_y
 _atom_site_fract_z
 _atom_site_occupancy
  H  H0  4  -0.32799906  0.91425695  0.83201228  1
  H  H1  4  -0.31453830  1.03125654  0.91973443  1
  H  H2  4  -0.28922855  0.88313076  0.96371892  1
  H  H3  4  0.09411304  0.80853295  0.19563493  1
  H  H4  4  0.09618256  0.57356304  0.95851173  1
  H  H5  4  0.25944892  0.36933773  0.93688460  1
  H  H6  4  0.26699138  0.29193757  0.22456851  1
  H  H7  4  0.34125288  0.74433238  0.88324218  1
  C  C8  4  -0.24624438  0.94274079  0.89556351  1
  C  C9  4  0.00639228  0.55032364  0.35553407  1
  C  C10  4  0.27090382  -0.05876700  0.41424168  1
  C  C11  4  0.28338371  0.47958814  0.20249177  1
  C  C12  4  0.33888522  0.70178101  0.15182151  1
  C  C13  4  0.36013465  0.44530401  0.90162723  1
  C  C14  4  0.37215102  1.13440083  0.68789752  1
  C  C15  4  0.40715588  0.65442710  0.87132663  1
  C  C16  4  0.41431716  0.92306258  0.65467019  1
  O  O17  4  0.05731929  0.48808822  0.25948785  1
  O  O18  4  0.11639041  0.72257487  0.19814929  1
  O  O19  4  0.15346665  0.91220180  0.89669054  1
  O  O20  4  0.46542905  0.78094734  0.10944711  1
