###############################################################################################
#
# CIF file generated by modified CIFWriter class 
# in pymatgen (v2025.03.10) https://pymatgen.org/
#
###############################################################################################
data_PBE+MBD_tight_9a247761b4e9f2f
_symmetry_space_group_name_H-M   P4_2
_cell_length_a   12.25887833
_cell_length_b   12.25887833
_cell_length_c   6.66552709
_cell_angle_alpha   90.00000000
_cell_angle_beta   90.00000000
_cell_angle_gamma   90.00000000
_symmetry_Int_Tables_number   77
_chemical_formula_moiety   'C9 H8 O4'
_chemical_formula_sum   'H32 C36 O16'
_cell_volume   1001.69606335
_cell_formula_units_Z   4
loop_
 _symmetry_equiv_pos_site_id
 _symmetry_equiv_pos_as_xyz
  1  'x, y, z'
  2  '-y, x, z+1/2'
  3  '-x, -y, z'
  4  'y, -x, z+1/2'
loop_
 _atom_site_type_symbol
 _atom_site_label
 _atom_site_symmetry_multiplicity
 _atom_site_fract_x
 _atom_site_fract_y
 _atom_site_fract_z
 _atom_site_occupancy
  H  H0  4  -0.21928222  0.23900181  0.98576651  1
  H  H1  4  -0.16515066  0.33151812  0.66733561  1
  H  H2  4  -0.07460453  0.16901506  1.21528743  1
  H  H3  4  0.12068690  0.19930653  1.13143253  1
  H  H4  4  0.13317353  0.40720169  0.32580915  1
  H  H5  4  0.26436967  0.59467369  0.36611007  1
  H  H6  4  0.37667559  0.61891976  0.20740173  1
  H  H7  4  0.40009522  0.57018831  0.45832257  1
  C  C8  4  -0.13365837  0.25069777  0.94926913  1
  C  C9  4  -0.10383445  0.30260694  0.77281948  1
  C  C10  4  -0.05267099  0.21173512  1.07781347  1
  C  C11  4  0.00584290  0.31927272  0.71974409  1
  C  C12  4  0.02417570  0.36662441  0.51590205  1
  C  C13  4  0.05665883  0.22882977  1.03212254  1
  C  C14  4  0.08536225  0.28419197  0.85736121  1
  C  C15  4  0.26179818  0.35508370  0.93851458  1
  C  C16  4  0.34951589  0.62289433  0.36416502  1
  O  O17  4  -0.05126834  0.38701587  0.40228942  1
  O  O18  4  0.12945961  0.38147479  0.46594597  1
  O  O19  4  0.19575971  0.29663826  0.81310004  1
  O  O20  4  0.23014234  0.40331162  1.08679413  1
