###############################################################################################
#
# CIF file generated by modified CIFWriter class 
# in pymatgen (v2025.03.10) https://pymatgen.org/
#
###############################################################################################
data_PBE+MBD_tight_9d4e45dde5094a0
_symmetry_space_group_name_H-M   P-4
_cell_length_a   11.22794747
_cell_length_b   11.22794747
_cell_length_c   7.30518151
_cell_angle_alpha   90.00000000
_cell_angle_beta   90.00000000
_cell_angle_gamma   90.00000000
_symmetry_Int_Tables_number   81
_chemical_formula_moiety   'C9 H8 O4'
_chemical_formula_sum   'H32 C36 O16'
_cell_volume   920.94088830
_cell_formula_units_Z   4
loop_
 _symmetry_equiv_pos_site_id
 _symmetry_equiv_pos_as_xyz
  1  'x, y, z'
  2  'y, -x, -z'
  3  '-x, -y, z'
  4  '-y, x, -z'
loop_
 _atom_site_type_symbol
 _atom_site_label
 _atom_site_symmetry_multiplicity
 _atom_site_fract_x
 _atom_site_fract_y
 _atom_site_fract_z
 _atom_site_occupancy
  H  H0  4  0.00231982  0.30605241  -0.07533767  1
  H  H1  4  0.07775365  0.60132634  0.25730129  1
  H  H2  4  0.08678049  0.82124458  0.30609799  1
  H  H3  4  0.09769195  0.19535294  0.42424612  1
  H  H4  4  0.10085356  0.43008768  -0.03372656  1
  H  H5  4  0.12764780  0.32813991  -0.21834655  1
  H  H6  4  0.18638191  0.46701035  0.47057321  1
  H  H7  4  0.36310047  0.47576572  0.99508620  1
  C  C8  4  0.09523974  0.33699131  -0.07734327  1
  C  C9  4  0.12465953  0.63791270  0.37512992  1
  C  C10  4  0.12823041  0.76080350  0.40391918  1
  C  C11  4  0.16608923  0.25575111  0.04300283  1
  C  C12  4  0.18496131  0.56273281  0.49369026  1
  C  C13  4  0.18981301  0.80664189  0.55338251  1
  C  C14  4  0.24826587  0.60712862  0.64523503  1
  C  C15  4  0.24853389  0.73058569  0.67393280  1
  C  C16  4  0.31186441  0.51657150  0.75629991  1
  O  O17  4  0.14947965  0.82230106  0.97713341  1
  O  O18  4  0.21747561  0.31697205  0.18754710  1
  O  O19  4  0.33544210  0.41738478  0.70032387  1
  O  O20  4  0.33760371  0.54981215  0.93212602  1
