###############################################################################################
#
# CIF file generated by modified CIFWriter class 
# in pymatgen (v2025.03.10) https://pymatgen.org/
#
###############################################################################################
data_PBE+MBD_tight_9e161c7f7cd4578
_symmetry_space_group_name_H-M   P2_12_12_1
_cell_length_a   8.00121163
_cell_length_b   22.58244108
_cell_length_c   4.86364222
_cell_angle_alpha   90.00000000
_cell_angle_beta   90.00000000
_cell_angle_gamma   90.00000000
_symmetry_Int_Tables_number   19
_chemical_formula_moiety   'C9 H8 O4'
_chemical_formula_sum   'H32 C36 O16'
_cell_volume   878.79638911
_cell_formula_units_Z   4
loop_
 _symmetry_equiv_pos_site_id
 _symmetry_equiv_pos_as_xyz
  1  'x, y, z'
  2  '-x, y+1/2, -z+1/2'
  3  '-x+1/2, -y, z+1/2'
  4  'x+1/2, -y+1/2, -z'
loop_
 _atom_site_type_symbol
 _atom_site_label
 _atom_site_symmetry_multiplicity
 _atom_site_fract_x
 _atom_site_fract_y
 _atom_site_fract_z
 _atom_site_occupancy
  H  H0  4  -0.11128738  0.50368089  0.50691340  1
  H  H1  4  -0.07564823  0.54705505  0.20828140  1
  H  H2  4  0.03129287  0.31917091  0.67684750  1
  H  H3  4  0.07813252  0.70701454  0.39868013  1
  H  H4  4  0.08597369  0.21773265  0.49648874  1
  H  H5  4  0.22343119  0.79463231  0.59092218  1
  H  H6  4  0.22971288  0.94635726  0.60878124  1
  H  H7  4  0.23179638  0.49902365  0.58762421  1
  C  C8  4  -0.13537794  0.54697570  0.41105590  1
  C  C9  4  -0.06411532  0.59443308  0.59030502  1
  C  C10  4  0.11720813  0.31232084  0.50652456  1
  C  C11  4  0.14623314  0.25601874  0.40282479  1
  C  C12  4  0.16063781  0.41937606  0.54074050  1
  C  C13  4  0.16279629  0.70209192  0.57197887  1
  C  C14  4  0.18880724  0.64593952  0.68214125  1
  C  C15  4  0.19913415  0.36254364  0.40115488  1
  C  C16  4  0.24438871  0.75108029  0.68149871  1
  O  O17  4  -0.13995091  0.62551790  0.75007904  1
  O  O18  4  0.05470383  0.42447714  0.71979725  1
  O  O19  4  0.10755899  0.59858811  0.55488201  1
  O  O20  4  0.24429085  0.53390881  0.95929686  1
