###############################################################################################
#
# CIF file generated by modified CIFWriter class 
# in pymatgen (v2025.03.10) https://pymatgen.org/
#
###############################################################################################
data_PBE+MBD_tight_9fa53d42d9a9c3c
_symmetry_space_group_name_H-M   P2_12_12_1
_cell_length_a   12.72647004
_cell_length_b   10.10118112
_cell_length_c   6.75708828
_cell_angle_alpha   90.00000000
_cell_angle_beta   90.00000000
_cell_angle_gamma   90.00000000
_symmetry_Int_Tables_number   19
_chemical_formula_moiety   'C9 H8 O4'
_chemical_formula_sum   'H32 C36 O16'
_cell_volume   868.63977295
_cell_formula_units_Z   4
loop_
 _symmetry_equiv_pos_site_id
 _symmetry_equiv_pos_as_xyz
  1  'x, y, z'
  2  'x+1/2, -y+1/2, -z'
  3  '-x+1/2, -y, z+1/2'
  4  '-x, y+1/2, -z+1/2'
loop_
 _atom_site_type_symbol
 _atom_site_label
 _atom_site_symmetry_multiplicity
 _atom_site_fract_x
 _atom_site_fract_y
 _atom_site_fract_z
 _atom_site_occupancy
  H  H0  4  -0.03782454  0.56511605  0.89125302  1
  H  H1  4  0.02133667  0.16151912  0.25480204  1
  H  H2  4  0.04889486  0.48730466  1.06164682  1
  H  H3  4  0.05668204  0.44768625  0.80253946  1
  H  H4  4  0.06187887  0.00001397  -0.01576284  1
  H  H5  4  0.13153906  0.82308003  0.42089202  1
  H  H6  4  0.15843398  0.52285289  0.50376883  1
  H  H7  4  0.23527434  0.01110789  -0.18615832  1
  C  C8  4  0.04220655  0.52619374  0.91103423  1
  C  C9  4  0.09741954  0.16212820  0.18086581  1
  C  C10  4  0.11657801  0.63941764  0.88971470  1
  C  C11  4  0.11967929  0.07380518  0.02857700  1
  C  C12  4  0.14082610  0.34636079  0.40697467  1
  C  C13  4  0.17158616  0.25622017  0.24259677  1
  C  C14  4  0.20772887  0.82890019  0.49375929  1
  C  C15  4  0.21707870  0.07908237  -0.06603306  1
  C  C16  4  0.23038755  0.74170341  0.64727265  1
  O  O17  4  0.08435542  0.31242535  0.54380705  1
  O  O18  4  0.14332206  0.71697903  1.01533962  1
  O  O19  4  0.15273921  0.64873908  0.69372066  1
  O  O20  4  0.17777807  0.47043286  0.38518420  1
