###############################################################################################
#
# CIF file generated by modified CIFWriter class 
# in pymatgen (v2025.03.10) https://pymatgen.org/
#
###############################################################################################
data_PBE+MBD_tight_a080c6707b9f8c0
_symmetry_space_group_name_H-M   P2_1/c
_cell_length_a   7.94486430
_cell_length_b   11.26707666
_cell_length_c   10.01446695
_cell_angle_alpha   90.00000000
_cell_angle_beta   111.59547210
_cell_angle_gamma   90.00000000
_symmetry_Int_Tables_number   14
_chemical_formula_moiety   'C9 H8 O4'
_chemical_formula_sum   'H32 C36 O16'
_cell_volume   833.52324540
_cell_formula_units_Z   4
loop_
 _symmetry_equiv_pos_site_id
 _symmetry_equiv_pos_as_xyz
  1  'x, y, z'
  2  '-x, -y, -z'
  3  '-x, y+1/2, -z+1/2'
  4  'x, -y+1/2, z+1/2'
loop_
 _atom_site_type_symbol
 _atom_site_label
 _atom_site_symmetry_multiplicity
 _atom_site_fract_x
 _atom_site_fract_y
 _atom_site_fract_z
 _atom_site_occupancy
  H  H0  4  -0.06585567  -0.04526259  0.70073993  1
  H  H1  4  -0.02896624  0.50618756  0.38038534  1
  H  H2  4  0.12087325  -0.10905392  0.84693310  1
  H  H3  4  0.16867960  0.87248923  0.58747088  1
  H  H4  4  0.17334110  0.82298873  0.20672093  1
  H  H5  4  0.19050372  0.25073176  0.62745978  1
  H  H6  4  0.40734675  0.92118757  0.49502446  1
  H  H7  4  0.41462967  0.52812842  0.71983721  1
  C  C8  4  0.03970525  -0.02920986  0.80648796  1
  C  C9  4  0.15329664  0.42601429  0.29796188  1
  C  C10  4  0.27400797  0.80756286  0.59713961  1
  C  C11  4  0.27540564  0.69751233  0.66148619  1
  C  C12  4  0.32096645  0.20717367  0.51085663  1
  C  C13  4  0.40785696  0.66512045  0.04383150  1
  C  C14  4  0.40945556  0.61476664  0.67011507  1
  C  C15  4  0.45606168  0.24699181  0.44931270  1
  C  C16  4  0.45816854  0.35714188  0.38487007  1
  O  O17  4  0.09495152  0.16555783  0.73137153  1
  O  O18  4  0.25962935  0.20790918  1.07549922  1
  O  O19  4  0.27491563  0.10314146  0.50730149  1
  O  O20  4  0.33127447  0.05404886  0.87495242  1
