###############################################################################################
#
# CIF file generated by modified CIFWriter class 
# in pymatgen (v2025.03.10) https://pymatgen.org/
#
###############################################################################################
data_PBE+MBD_tight_a0b7dc9b23c0c8e
_symmetry_space_group_name_H-M   Pnn2
_cell_length_a   15.94470716
_cell_length_b   8.27468169
_cell_length_c   6.82962811
_cell_angle_alpha   90.00000000
_cell_angle_beta   90.00000000
_cell_angle_gamma   90.00000000
_symmetry_Int_Tables_number   34
_chemical_formula_moiety   'C9 H8 O4'
_chemical_formula_sum   'H32 C36 O16'
_cell_volume   901.08321409
_cell_formula_units_Z   4
loop_
 _symmetry_equiv_pos_site_id
 _symmetry_equiv_pos_as_xyz
  1  'x, y, z'
  2  '-x, -y, z'
  3  'x+1/2, -y+1/2, z+1/2'
  4  '-x+1/2, y+1/2, z+1/2'
loop_
 _atom_site_type_symbol
 _atom_site_label
 _atom_site_symmetry_multiplicity
 _atom_site_fract_x
 _atom_site_fract_y
 _atom_site_fract_z
 _atom_site_occupancy
  H  H0  4  -0.06212814  0.70907217  0.70905621  1
  H  H1  4  -0.02868354  0.62029891  0.48208441  1
  H  H2  4  -0.00946332  0.82686537  0.52140460  1
  H  H3  4  0.04269384  0.15328855  0.11371927  1
  H  H4  4  0.11983154  1.08598863  0.59513200  1
  H  H5  4  0.12073760  0.41495676  0.11751898  1
  H  H6  4  0.12418202  -0.10799907  0.09948994  1
  H  H7  4  0.22198840  0.39864558  0.57798227  1
  C  C8  4  -0.01359701  0.70923392  0.59543594  1
  C  C9  4  0.07048690  0.67929139  0.68781919  1
  C  C10  4  0.11108644  0.15355432  0.11023363  1
  C  C11  4  0.15393910  0.29983088  0.11141160  1
  C  C12  4  0.15599868  0.00853600  0.10152994  1
  C  C13  4  0.21432250  0.65830228  0.58507610  1
  C  C14  4  0.22017363  0.96975183  0.60265145  1
  C  C15  4  0.24198590  0.30576057  0.09980175  1
  C  C16  4  0.24317915  0.01148866  0.08938904  1
  O  O17  4  0.08603474  0.67896865  0.86074879  1
  O  O18  4  0.12879873  0.65359061  0.54301219  1
  O  O19  4  0.13514500  0.97188535  0.58638090  1
  O  O20  4  0.24006398  0.59448433  0.12026995  1
