###############################################################################################
#
# CIF file generated by modified CIFWriter class 
# in pymatgen (v2025.03.10) https://pymatgen.org/
#
###############################################################################################
data_PBE+MBD_tight_a3a3bd12401d3b5
_symmetry_space_group_name_H-M   Pcc2
_cell_length_a   10.22139799
_cell_length_b   12.70016634
_cell_length_c   6.54959550
_cell_angle_alpha   90.00000000
_cell_angle_beta   90.00000000
_cell_angle_gamma   90.00000000
_symmetry_Int_Tables_number   27
_chemical_formula_moiety   'C9 H8 O4'
_chemical_formula_sum   'H32 C36 O16'
_cell_volume   850.22561940
_cell_formula_units_Z   4
loop_
 _symmetry_equiv_pos_site_id
 _symmetry_equiv_pos_as_xyz
  1  'x, y, z'
  2  '-x, -y, z'
  3  '-x, y, z+1/2'
  4  'x, -y, z+1/2'
loop_
 _atom_site_type_symbol
 _atom_site_label
 _atom_site_symmetry_multiplicity
 _atom_site_fract_x
 _atom_site_fract_y
 _atom_site_fract_z
 _atom_site_occupancy
  H  H0  4  0.00662597  0.12354199  1.37025348  1
  H  H1  4  0.07735126  0.36824182  0.94205838  1
  H  H2  4  0.12822068  0.04195603  1.25256661  1
  H  H3  4  0.16375140  0.11221216  1.48251961  1
  H  H4  4  0.17654259  0.49106893  0.22504991  1
  H  H5  4  0.38864050  0.47702275  0.55190493  1
  H  H6  4  0.39238743  -0.01652154  0.78311823  1
  H  H7  4  0.49939509  0.30407669  0.09155136  1
  C  C8  4  0.11131271  0.11500055  1.33640971  1
  C  C9  4  0.15628101  0.20996560  1.22077313  1
  C  C10  4  0.17039973  0.35551856  0.86522302  1
  C  C11  4  0.22561144  0.43329465  0.74248472  1
  C  C12  4  0.23514252  0.25987069  0.89061165  1
  C  C13  4  0.34578731  0.41591067  0.64724693  1
  C  C14  4  0.35295121  0.23888074  0.78705729  1
  C  C15  4  0.40846335  0.31958802  0.66905538  1
  C  C16  4  0.41968028  0.13504736  0.78773427  1
  O  O17  4  0.16601577  0.29809647  1.28822052  1
  O  O18  4  0.18536844  0.18292617  1.02016669  1
  O  O19  4  0.34067364  0.05303644  0.78885228  1
  O  O20  4  0.45914482  0.12742019  0.27811041  1
