###############################################################################################
#
# CIF file generated by modified CIFWriter class 
# in pymatgen (v2025.03.10) https://pymatgen.org/
#
###############################################################################################
data_PBE+MBD_tight_a3cd42c512a79c3
_symmetry_space_group_name_H-M   P2_12_12_1
_cell_length_a   8.67809152
_cell_length_b   17.97996478
_cell_length_c   5.34682627
_cell_angle_alpha   90.00000000
_cell_angle_beta   90.00000000
_cell_angle_gamma   90.00000000
_symmetry_Int_Tables_number   19
_chemical_formula_moiety   'C9 H8 O4'
_chemical_formula_sum   'H32 C36 O16'
_cell_volume   834.27481984
_cell_formula_units_Z   4
loop_
 _symmetry_equiv_pos_site_id
 _symmetry_equiv_pos_as_xyz
  1  'x, y, z'
  2  '-x, y+1/2, -z+1/2'
  3  '-x+1/2, -y, z+1/2'
  4  'x+1/2, -y+1/2, -z'
loop_
 _atom_site_type_symbol
 _atom_site_label
 _atom_site_symmetry_multiplicity
 _atom_site_fract_x
 _atom_site_fract_y
 _atom_site_fract_z
 _atom_site_occupancy
  H  H0  4  -0.17314078  1.00395603  -0.44606731  1
  H  H1  4  -0.14470368  0.71201955  -0.43964930  1
  H  H2  4  -0.14211565  0.77535456  -0.69909930  1
  H  H3  4  -0.10635254  1.11325451  -0.18585089  1
  H  H4  4  0.06790511  1.09753535  0.18764236  1
  H  H5  4  0.13381837  0.74300330  0.05723878  1
  H  H6  4  0.17967206  0.75168451  1.55188266  1
  H  H7  4  0.18931844  0.97494239  0.26508164  1
  C  C8  4  -0.19850605  0.76172841  -0.52201388  1
  C  C9  4  -0.18443173  0.82276321  -0.33467962  1
  C  C10  4  -0.09685258  0.99806752  -0.28569902  1
  C  C11  4  -0.05891902  1.05907482  -0.13741863  1
  C  C12  4  -0.03488826  0.92877977  -0.22898134  1
  C  C13  4  0.04033268  1.05073001  0.06610900  1
  C  C14  4  0.07059637  0.91948284  -0.03367061  1
  C  C15  4  0.10688290  0.98176104  0.11315999  1
  C  C16  4  0.15590372  0.84912042  0.01832928  1
  O  O17  4  -0.06725580  0.86959395  -0.39242925  1
  O  O18  4  0.06936380  0.78750455  0.00768712  1
  O  O19  4  0.20664522  0.15073451  0.56895079  1
  O  O20  4  0.23455514  0.66897975  1.14927976  1
