###############################################################################################
#
# CIF file generated by modified CIFWriter class 
# in pymatgen (v2025.03.10) https://pymatgen.org/
#
###############################################################################################
data_PBE+MBD_tight_a4af2ba06d2340b
_symmetry_space_group_name_H-M   Pca2_1
_cell_length_a   15.68327735
_cell_length_b   5.90445246
_cell_length_c   9.60773386
_cell_angle_alpha   90.00000000
_cell_angle_beta   90.00000000
_cell_angle_gamma   90.00000000
_symmetry_Int_Tables_number   29
_chemical_formula_moiety   'C9 H8 O4'
_chemical_formula_sum   'H32 C36 O16'
_cell_volume   889.68735299
_cell_formula_units_Z   4
loop_
 _symmetry_equiv_pos_site_id
 _symmetry_equiv_pos_as_xyz
  1  'x, y, z'
  2  '-x, -y, z+1/2'
  3  '-x+1/2, y, z+1/2'
  4  'x+1/2, -y, z'
loop_
 _atom_site_type_symbol
 _atom_site_label
 _atom_site_symmetry_multiplicity
 _atom_site_fract_x
 _atom_site_fract_y
 _atom_site_fract_z
 _atom_site_occupancy
  H  H0  4  -0.09626453  0.56521052  0.77384775  1
  H  H1  4  -0.05908269  1.20157147  0.54150887  1
  H  H2  4  -0.01213242  0.29765749  0.91627045  1
  H  H3  4  0.14087059  1.37507140  0.53855569  1
  H  H4  4  0.14246265  0.37579438  0.96011547  1
  H  H5  4  0.21030751  0.72205668  0.85652287  1
  H  H6  4  0.21328332  1.24465006  0.41768287  1
  H  H7  4  0.24421936  1.29675841  0.59523704  1
  C  C8  4  -0.05179776  0.93993420  0.65446359  1
  C  C9  4  -0.02871216  0.59532311  0.79201436  1
  C  C10  4  0.00766383  0.79025222  0.73291657  1
  C  C11  4  0.01881635  0.44632209  0.87217261  1
  C  C12  4  0.09522922  0.82931168  0.75574270  1
  C  C13  4  0.10502178  0.49109486  0.89635983  1
  C  C14  4  0.14323627  0.68269291  0.83838098  1
  C  C15  4  0.15942930  1.02046944  0.56627187  1
  C  C16  4  0.19170583  1.24890505  0.52591875  1
  O  O17  4  -0.12852272  0.90580114  0.64705591  1
  O  O18  4  -0.01426982  1.11722183  0.59087674  1
  O  O19  4  0.13627390  1.02036409  0.70513873  1
  O  O20  4  0.15307510  0.85420289  0.49309833  1
