###############################################################################################
#
# CIF file generated by modified CIFWriter class 
# in pymatgen (v2025.03.10) https://pymatgen.org/
#
###############################################################################################
data_PBE+MBD_tight_a8da13f0d649cb8
_symmetry_space_group_name_H-M   P2_12_12_1
_cell_length_a   13.92131188
_cell_length_b   7.22276921
_cell_length_c   8.53072580
_cell_angle_alpha   90.00000000
_cell_angle_beta   90.00000000
_cell_angle_gamma   90.00000000
_symmetry_Int_Tables_number   19
_chemical_formula_moiety   'C9 H8 O4'
_chemical_formula_sum   'H32 C36 O16'
_cell_volume   857.76808652
_cell_formula_units_Z   4
loop_
 _symmetry_equiv_pos_site_id
 _symmetry_equiv_pos_as_xyz
  1  'x, y, z'
  2  'x+1/2, -y+1/2, -z'
  3  '-x, y+1/2, -z+1/2'
  4  '-x+1/2, -y, z+1/2'
loop_
 _atom_site_type_symbol
 _atom_site_label
 _atom_site_symmetry_multiplicity
 _atom_site_fract_x
 _atom_site_fract_y
 _atom_site_fract_z
 _atom_site_occupancy
  H  H0  4  0.03956712  0.55516085  1.06133837  1
  H  H1  4  0.04280539  1.14590404  1.18914609  1
  H  H2  4  0.04422469  -0.21818481  0.70958020  1
  H  H3  4  0.07927954  -0.23472769  0.50872585  1
  H  H4  4  0.13214658  0.27003955  0.39644324  1
  H  H5  4  0.13865284  0.33100564  0.91054672  1
  H  H6  4  0.16145453  -0.30107807  0.65608281  1
  H  H7  4  0.19617694  0.57842876  0.32773452  1
  C  C8  4  0.07893904  0.89259207  1.14857028  1
  C  C9  4  0.10413874  -0.20247357  0.62788903  1
  C  C10  4  0.11138129  0.59297628  1.02308828  1
  C  C11  4  0.14131090  -0.00855444  0.63084847  1
  C  C12  4  0.14530168  0.77126904  1.05978022  1
  C  C13  4  0.16682917  0.46697633  0.94029274  1
  C  C14  4  0.20462905  0.30812177  0.43096770  1
  C  C15  4  0.23892563  0.81910684  1.01210712  1
  C  C16  4  0.24068616  0.48229158  0.39401550  1
  O  O17  4  0.01488128  0.83028630  1.23470978  1
  O  O18  4  0.09112739  1.07253063  1.12763066  1
  O  O19  4  0.10628845  0.12218507  0.69859880  1
  O  O20  4  0.22429671  0.00537083  0.54128956  1
