###############################################################################################
#
# CIF file generated by modified CIFWriter class 
# in pymatgen (v2025.03.10) https://pymatgen.org/
#
###############################################################################################
data_PBE+MBD_tight_aa8457cbef1434c
_symmetry_space_group_name_H-M   P2_1/c
_cell_length_a   10.95863180
_cell_length_b   14.22456605
_cell_length_c   5.54778660
_cell_angle_alpha   90.00000000
_cell_angle_beta   90.97744499
_cell_angle_gamma   90.00000000
_symmetry_Int_Tables_number   14
_chemical_formula_moiety   'C9 H8 O4'
_chemical_formula_sum   'H32 C36 O16'
_cell_volume   864.67302191
_cell_formula_units_Z   4
loop_
 _symmetry_equiv_pos_site_id
 _symmetry_equiv_pos_as_xyz
  1  'x, y, z'
  2  '-x, -y, -z'
  3  '-x, y+1/2, -z+1/2'
  4  'x, -y+1/2, z+1/2'
loop_
 _atom_site_type_symbol
 _atom_site_label
 _atom_site_symmetry_multiplicity
 _atom_site_fract_x
 _atom_site_fract_y
 _atom_site_fract_z
 _atom_site_occupancy
  H  H0  4  0.05198793  0.02622867  0.85891538  1
  H  H1  4  0.10058663  0.63997544  1.47188859  1
  H  H2  4  0.11574005  0.21897349  0.24464077  1
  H  H3  4  0.25663108  0.72738268  1.23764802  1
  H  H4  4  0.36567295  -0.14625723  0.40471136  1
  H  H5  4  0.40114616  0.40412957  0.38081847  1
  H  H6  4  0.44642339  0.29664202  0.52568083  1
  H  H7  4  0.45561496  0.60365714  0.46341000  1
  C  C8  4  0.11868973  -0.01410145  0.75935010  1
  C  C9  4  0.13148896  0.37234964  1.00639838  1
  C  C10  4  0.14678455  0.60619658  1.32245742  1
  C  C11  4  0.17360764  0.46935521  1.06376687  1
  C  C12  4  0.23391091  0.65496581  1.19128042  1
  C  C13  4  0.26296602  -0.01928592  0.43704458  1
  C  C14  4  0.29312006  -0.11107242  0.50150133  1
  C  C15  4  0.39436319  0.09648558  0.26994683  1
  C  C16  4  0.44837933  0.12634126  0.03731925  1
  O  O17  4  0.08233807  0.17711942  0.66044947  1
  O  O18  4  0.14727919  0.15331782  0.28033893  1
  O  O19  4  0.32333154  0.48277237  0.73974096  1
  O  O20  4  0.41069590  0.36639317  0.96466509  1
