###############################################################################################
#
# CIF file generated by modified CIFWriter class 
# in pymatgen (v2025.03.10) https://pymatgen.org/
#
###############################################################################################
data_PBE+MBD_tight_aab75fac6cdba73
_symmetry_space_group_name_H-M   Pba2
_cell_length_a   12.18864413
_cell_length_b   15.33922143
_cell_length_c   5.00052558
_cell_angle_alpha   90.00000000
_cell_angle_beta   90.00000000
_cell_angle_gamma   90.00000000
_symmetry_Int_Tables_number   32
_chemical_formula_moiety   'C9 H8 O4'
_chemical_formula_sum   'H32 C36 O16'
_cell_volume   934.91982134
_cell_formula_units_Z   4
loop_
 _symmetry_equiv_pos_site_id
 _symmetry_equiv_pos_as_xyz
  1  'x, y, z'
  2  '-x, -y, z'
  3  '-x+1/2, y+1/2, z'
  4  'x+1/2, -y+1/2, z'
loop_
 _atom_site_type_symbol
 _atom_site_label
 _atom_site_symmetry_multiplicity
 _atom_site_fract_x
 _atom_site_fract_y
 _atom_site_fract_z
 _atom_site_occupancy
  H  H0  4  -0.05555470  0.87043665  0.96302179  1
  H  H1  4  -0.00686620  0.77810011  0.56902350  1
  H  H2  4  0.00394231  0.41405090  0.55203461  1
  H  H3  4  0.03886640  0.58467824  1.10102516  1
  H  H4  4  0.08830419  0.96546729  1.17078218  1
  H  H5  4  0.11277271  0.68155868  1.02634746  1
  H  H6  4  0.15367739  0.61462392  1.30525540  1
  H  H7  4  0.18525560  0.77927373  0.39850620  1
  C  C8  4  0.02751084  0.87142112  0.88260853  1
  C  C9  4  0.05476605  0.81918260  0.66391281  1
  C  C10  4  0.10670043  0.92510219  0.99738444  1
  C  C11  4  0.12069050  0.61477088  1.10057137  1
  C  C12  4  0.14766456  0.36894625  0.54969280  1
  C  C13  4  0.16133604  0.82040986  0.56584633  1
  C  C14  4  0.19538819  0.56377463  0.92167997  1
  C  C15  4  0.21242717  0.92795383  0.89305171  1
  C  C16  4  0.24242389  0.87481427  0.67568575  1
  O  O17  4  0.07236573  0.42593196  0.64771096  1
  O  O18  4  0.12430305  0.31717230  0.37330803  1
  O  O19  4  0.21368904  0.48221729  1.02647369  1
  O  O20  4  0.23578905  0.58855005  0.71353423  1
