###############################################################################################
#
# CIF file generated by modified CIFWriter class 
# in pymatgen (v2025.03.10) https://pymatgen.org/
#
###############################################################################################
data_PBE+MBD_tight_af81aa39ca46b09
_symmetry_space_group_name_H-M   P2_1/c
_cell_length_a   7.42213812
_cell_length_b   12.98442592
_cell_length_c   9.59766193
_cell_angle_alpha   90.00000000
_cell_angle_beta   106.32041234
_cell_angle_gamma   90.00000000
_symmetry_Int_Tables_number   14
_chemical_formula_moiety   'C9 H8 O4'
_chemical_formula_sum   'H32 C36 O16'
_cell_volume   887.67726881
_cell_formula_units_Z   4
loop_
 _symmetry_equiv_pos_site_id
 _symmetry_equiv_pos_as_xyz
  1  'x, y, z'
  2  '-x, -y, -z'
  3  '-x, y+1/2, -z+1/2'
  4  'x, -y+1/2, z+1/2'
loop_
 _atom_site_type_symbol
 _atom_site_label
 _atom_site_symmetry_multiplicity
 _atom_site_fract_x
 _atom_site_fract_y
 _atom_site_fract_z
 _atom_site_occupancy
  H  H0  4  -0.34827471  0.11284167  0.71337900  1
  H  H1  4  -0.32876958  0.22165368  0.09010097  1
  H  H2  4  -0.05403587  0.47187120  0.35915521  1
  H  H3  4  -0.01794847  0.35923947  0.61271568  1
  H  H4  4  0.32597853  0.84494061  0.63053348  1
  H  H5  4  0.40191671  0.53121739  0.08914165  1
  H  H6  4  0.43765259  0.56826200  0.54362368  1
  H  H7  4  0.46424297  0.57870081  0.27286893  1
  C  C8  4  -0.21187693  0.35233327  0.22322328  1
  C  C9  4  -0.20097722  0.25901371  0.15397447  1
  C  C10  4  -0.04808457  0.10064177  0.80391526  1
  C  C11  4  -0.02750495  0.28648051  0.66644043  1
  C  C12  4  0.12957966  0.35551297  0.31763263  1
  C  C13  4  0.13667445  0.23911669  0.74747092  1
  C  C14  4  0.29384745  0.08510238  0.90232960  1
  C  C15  4  0.38595252  0.14817867  0.36380891  1
  C  C16  4  0.44174064  0.90085447  0.65860589  1
  O  O17  4  0.27328254  0.49513759  0.46776224  1
  O  O18  4  0.30391336  0.21206050  0.24852467  1
  O  O19  4  0.32350327  0.13613918  0.46642175  1
  O  O20  4  0.46110735  0.38028998  0.40244413  1
