###############################################################################################
#
# CIF file generated by modified CIFWriter class 
# in pymatgen (v2025.03.10) https://pymatgen.org/
#
###############################################################################################
data_PBE+MBD_tight_afdaea154b75e77
_symmetry_space_group_name_H-M   P4_2
_cell_length_a   13.83288002
_cell_length_b   13.83288002
_cell_length_c   5.06085205
_cell_angle_alpha   90.00000000
_cell_angle_beta   90.00000000
_cell_angle_gamma   90.00000000
_symmetry_Int_Tables_number   77
_chemical_formula_moiety   'C9 H8 O4'
_chemical_formula_sum   'H32 C36 O16'
_cell_volume   968.38680136
_cell_formula_units_Z   4
loop_
 _symmetry_equiv_pos_site_id
 _symmetry_equiv_pos_as_xyz
  1  'x, y, z'
  2  '-y, x, z+1/2'
  3  '-x, -y, z'
  4  'y, -x, z+1/2'
loop_
 _atom_site_type_symbol
 _atom_site_label
 _atom_site_symmetry_multiplicity
 _atom_site_fract_x
 _atom_site_fract_y
 _atom_site_fract_z
 _atom_site_occupancy
  H  H0  4  -0.07537489  0.73914364  0.27381878  1
  H  H1  4  -0.05583242  0.61498491  -0.07083139  1
  H  H2  4  0.10508972  0.11360216  1.36964000  1
  H  H3  4  0.10973689  0.55177539  -0.17624043  1
  H  H4  4  0.21543644  0.42351154  1.07357036  1
  H  H5  4  0.22055915  0.35666845  1.37064410  1
  H  H6  4  0.25039219  0.61066455  0.07897429  1
  H  H7  4  0.31452155  0.44105201  1.29698758  1
  C  C8  4  -0.00403457  0.70984136  0.23367411  1
  C  C9  4  0.00702614  0.63995293  0.03920224  1
  C  C10  4  0.05537660  0.82356892  0.57587572  1
  C  C11  4  0.07498686  0.74564268  0.37813415  1
  C  C12  4  0.09887192  0.60405923  -0.01785261  1
  C  C13  4  0.16671656  0.70686575  0.31993487  1
  C  C14  4  0.17833189  0.63730542  0.12356662  1
  C  C15  4  0.26496498  0.38798406  1.21199264  1
  C  C16  4  0.30857525  0.68004080  0.57848777  1
  O  O17  4  -0.01995067  0.87155714  0.57729335  1
  O  O18  4  0.12431988  0.83596711  0.75243564  1
  O  O19  4  0.24880199  0.74309278  0.44473668  1
  O  O20  4  0.29550424  0.59354185  0.58880423  1
