###############################################################################################
#
# CIF file generated by modified CIFWriter class 
# in pymatgen (v2025.03.10) https://pymatgen.org/
#
###############################################################################################
data_PBE+MBD_tight_affcbf880c38a3b
_symmetry_space_group_name_H-M   Pca2_1
_cell_length_a   17.83983762
_cell_length_b   5.30071838
_cell_length_c   9.14085922
_cell_angle_alpha   90.00000000
_cell_angle_beta   90.00000000
_cell_angle_gamma   90.00000000
_symmetry_Int_Tables_number   29
_chemical_formula_moiety   'C9 H8 O4'
_chemical_formula_sum   'H32 C36 O16'
_cell_volume   864.39580044
_cell_formula_units_Z   4
loop_
 _symmetry_equiv_pos_site_id
 _symmetry_equiv_pos_as_xyz
  1  'x, y, z'
  2  '-x, -y, z+1/2'
  3  '-x+1/2, y, z+1/2'
  4  'x+1/2, -y, z'
loop_
 _atom_site_type_symbol
 _atom_site_label
 _atom_site_symmetry_multiplicity
 _atom_site_fract_x
 _atom_site_fract_y
 _atom_site_fract_z
 _atom_site_occupancy
  H  H0  4  -0.11779453  0.23388010  0.02547480  1
  H  H1  4  -0.08129302  0.55966371  0.21061196  1
  H  H2  4  -0.02394235  -0.08236951  -0.05831318  1
  H  H3  4  0.04664090  0.54899491  0.31715252  1
  H  H4  4  0.19328818  -0.46659498  -0.06081915  1
  H  H5  4  0.23343756  -0.30072210  -0.21360228  1
  H  H6  4  0.23480578  -0.24094637  0.46697954  1
  H  H7  4  0.23626801  0.16670522  0.74125887  1
  C  C8  4  -0.06104481  0.23868028  0.06923120  1
  C  C9  4  -0.04100236  0.41917222  0.17335887  1
  C  C10  4  -0.00868125  0.06293402  0.02029467  1
  C  C11  4  0.03097875  0.41647945  0.23150161  1
  C  C12  4  0.06396897  0.07019617  0.07493643  1
  C  C13  4  0.08500636  0.24242900  0.18371165  1
  C  C14  4  0.15837278  0.23836942  0.26247125  1
  C  C15  4  0.16103590  -0.07583201  -0.08116619  1
  C  C16  4  0.21559090  -0.28636432  -0.09933496  1
  O  O17  4  0.11355611  -0.12082609  0.03131052  1
  O  O18  4  0.15883352  0.11695064  -0.15479756  1
  O  O19  4  0.16282928  0.28742090  0.39299029  1
  O  O20  4  0.21730768  0.17792453  0.17860648  1
