###############################################################################################
#
# CIF file generated by modified CIFWriter class 
# in pymatgen (v2025.03.10) https://pymatgen.org/
#
###############################################################################################
data_PBE+MBD_tight_b29941649e2b9e0
_symmetry_space_group_name_H-M   P4_1
_cell_length_a   8.03149860
_cell_length_b   8.03149860
_cell_length_c   13.76203320
_cell_angle_alpha   90.00000000
_cell_angle_beta   90.00000000
_cell_angle_gamma   90.00000000
_symmetry_Int_Tables_number   76
_chemical_formula_moiety   'C9 H8 O4'
_chemical_formula_sum   'H32 C36 O16'
_cell_volume   887.71953536
_cell_formula_units_Z   4
loop_
 _symmetry_equiv_pos_site_id
 _symmetry_equiv_pos_as_xyz
  1  'x, y, z'
  2  '-y, x, z+1/4'
  3  '-x, -y, z+1/2'
  4  'y, -x, z+3/4'
loop_
 _atom_site_type_symbol
 _atom_site_label
 _atom_site_symmetry_multiplicity
 _atom_site_fract_x
 _atom_site_fract_y
 _atom_site_fract_z
 _atom_site_occupancy
  H  H0  4  -0.23297947  0.46618239  0.89370107  1
  H  H1  4  -0.12941596  0.17279454  0.89974346  1
  H  H2  4  0.05183896  0.42084236  0.10509509  1
  H  H3  4  0.10526444  -0.12947124  0.00611785  1
  H  H4  4  0.11334093  0.83086767  0.62152688  1
  H  H5  4  0.11664596  0.60363890  0.17097435  1
  H  H6  4  0.16895679  0.57622563  0.04553731  1
  H  H7  4  0.34586429  0.62982965  0.59380898  1
  C  C8  4  -0.10093443  0.43872686  0.88448469  1
  C  C9  4  -0.04725843  0.74508177  0.86020703  1
  C  C10  4  -0.04312917  0.27505411  0.88694979  1
  C  C11  4  0.01162099  0.56897323  0.86941200  1
  C  C12  4  0.12530815  0.24165286  0.87140917  1
  C  C13  4  0.15092780  0.51274935  0.11525964  1
  C  C14  4  0.18120802  0.53405885  0.85722910  1
  C  C15  4  0.23877466  0.37047534  0.85620950  1
  C  C16  4  0.31133504  0.43080802  0.14231758  1
  O  O17  4  -0.10115841  0.77501275  0.77120565  1
  O  O18  4  -0.04703106  0.84900799  0.92593724  1
  O  O19  4  0.28316615  0.67145544  0.84160675  1
  O  O20  4  0.41354096  0.48258125  0.19948586  1
