###############################################################################################
#
# CIF file generated by modified CIFWriter class 
# in pymatgen (v2025.03.10) https://pymatgen.org/
#
###############################################################################################
data_PBE+MBD_tight_b2d6f25be73bafc
_symmetry_space_group_name_H-M   P2_12_12_1
_cell_length_a   14.49882629
_cell_length_b   8.32186906
_cell_length_c   6.93336392
_cell_angle_alpha   90.00000000
_cell_angle_beta   90.00000000
_cell_angle_gamma   90.00000000
_symmetry_Int_Tables_number   19
_chemical_formula_moiety   'C9 H8 O4'
_chemical_formula_sum   'H32 C36 O16'
_cell_volume   836.56120573
_cell_formula_units_Z   4
loop_
 _symmetry_equiv_pos_site_id
 _symmetry_equiv_pos_as_xyz
  1  'x, y, z'
  2  'x+1/2, -y+1/2, -z'
  3  '-x+1/2, -y, z+1/2'
  4  '-x, y+1/2, -z+1/2'
loop_
 _atom_site_type_symbol
 _atom_site_label
 _atom_site_symmetry_multiplicity
 _atom_site_fract_x
 _atom_site_fract_y
 _atom_site_fract_z
 _atom_site_occupancy
  H  H0  4  -0.01145509  1.03363287  0.89314940  1
  H  H1  4  -0.00235841  0.81908876  0.92406221  1
  H  H2  4  0.05105734  0.71362834  0.33975768  1
  H  H3  4  0.08642217  0.94594070  1.00825248  1
  H  H4  4  0.10756905  0.32085237  -0.14057290  1
  H  H5  4  0.13721535  0.62492861  0.04833027  1
  H  H6  4  0.16508758  0.07583128  0.40642167  1
  H  H7  4  0.19102185  0.39363929  -0.44241198  1
  C  C8  4  0.03518843  0.93051071  0.89269798  1
  C  C9  4  0.08517717  0.92253468  0.70477154  1
  C  C10  4  0.12613230  0.70640203  0.34171671  1
  C  C11  4  0.17152539  0.21533449  0.18666809  1
  C  C12  4  0.17427215  0.74622628  0.50845605  1
  C  C13  4  0.17475893  0.65697907  0.17878481  1
  C  C14  4  0.18238813  0.31366752  -0.14810421  1
  C  C15  4  0.22920887  0.26031930  0.01686323  1
  C  C16  4  0.22927961  0.35415485  -0.31581820  1
  O  O17  4  0.09260222  1.03321459  0.59025685  1
  O  O18  4  0.09458158  0.27198751  0.21339969  1
  O  O19  4  0.12319796  0.77520581  0.67702756  1
  O  O20  4  0.20967829  0.10409173  0.30071360  1
