###############################################################################################
#
# CIF file generated by modified CIFWriter class 
# in pymatgen (v2025.03.10) https://pymatgen.org/
#
###############################################################################################
data_PBE+MBD_tight_b5378e7684f524
_symmetry_space_group_name_H-M   Pna2_1
_cell_length_a   8.99072654
_cell_length_b   14.81169650
_cell_length_c   6.71056070
_cell_angle_alpha   90.00000000
_cell_angle_beta   90.00000000
_cell_angle_gamma   90.00000000
_symmetry_Int_Tables_number   33
_chemical_formula_moiety   'C9 H8 O4'
_chemical_formula_sum   'H32 C36 O16'
_cell_volume   893.63136275
_cell_formula_units_Z   4
loop_
 _symmetry_equiv_pos_site_id
 _symmetry_equiv_pos_as_xyz
  1  'x, y, z'
  2  '-x, -y, z+1/2'
  3  '-x+1/2, y+1/2, z+1/2'
  4  'x+1/2, -y+1/2, z'
loop_
 _atom_site_type_symbol
 _atom_site_label
 _atom_site_symmetry_multiplicity
 _atom_site_fract_x
 _atom_site_fract_y
 _atom_site_fract_z
 _atom_site_occupancy
  H  H0  4  -0.16103612  0.96792343  0.10966634  1
  H  H1  4  -0.11869802  0.80283103  0.11115001  1
  H  H2  4  -0.10345060  0.58384938  0.51864430  1
  H  H3  4  -0.08870560  0.65856234  0.72654397  1
  H  H4  4  0.02421240  0.67551748  0.50543079  1
  H  H5  4  0.10427769  1.21828366  0.08209443  1
  H  H6  4  0.14048470  0.74212329  0.09331870  1
  H  H7  4  0.14548185  0.35124122  0.57333732  1
  C  C8  4  -0.04850578  0.94098667  0.10483536  1
  C  C9  4  -0.02692047  0.62572509  0.60623105  1
  C  C10  4  -0.02402304  0.84848198  0.10461133  1
  C  C11  4  0.02841376  1.09991797  0.09193694  1
  C  C12  4  0.06987329  1.00264513  0.09343817  1
  C  C13  4  0.09563773  0.56943767  0.69226075  1
  C  C14  4  0.12080646  0.81482846  0.09555721  1
  C  C15  4  0.21483012  0.96744370  0.08061815  1
  C  C16  4  0.23989411  0.87462892  0.08420393  1
  O  O17  4  -0.09936881  1.12713881  0.10162626  1
  O  O18  4  0.13288086  0.56497635  0.86530900  1
  O  O19  4  0.14570444  1.15726156  0.07856259  1
  O  O20  4  0.16199881  0.52133566  0.54179607  1
