###############################################################################################
#
# CIF file generated by modified CIFWriter class 
# in pymatgen (v2025.03.10) https://pymatgen.org/
#
###############################################################################################
data_PBE+MBD_tight_b69eafd29df9396
_symmetry_space_group_name_H-M   Cc
_cell_length_a   13.11404073
_cell_length_b   9.07462690
_cell_length_c   7.45752912
_cell_angle_alpha   90.00000000
_cell_angle_beta   88.33985610
_cell_angle_gamma   90.00000000
_symmetry_Int_Tables_number   9
_chemical_formula_moiety   'C9 H8 O4'
_chemical_formula_sum   'H32 C36 O16'
_cell_volume   887.11093625
_cell_formula_units_Z   4
loop_
 _symmetry_equiv_pos_site_id
 _symmetry_equiv_pos_as_xyz
  1  'x, y, z'
  2  'x, -y, z+1/2'
  3  'x+1/2, y+1/2, z'
  4  'x+1/2, -y+1/2, z+1/2'
loop_
 _atom_site_type_symbol
 _atom_site_label
 _atom_site_symmetry_multiplicity
 _atom_site_fract_x
 _atom_site_fract_y
 _atom_site_fract_z
 _atom_site_occupancy
  H  H0  4  0.17466301  0.21357374  0.80588787  1
  H  H1  4  0.33176488  0.54550905  0.81408260  1
  H  H2  4  0.33208375  0.26755684  1.38547885  1
  H  H3  4  0.41920212  0.60558868  0.98085398  1
  H  H4  4  0.43239986  0.99212740  0.07646314  1
  H  H5  4  0.60753787  0.38493431  0.93826297  1
  H  H6  4  0.61411340  0.93146539  0.00802049  1
  H  H7  4  0.69816978  0.73203922  0.18354054  1
  C  C8  4  0.30666478  0.87770452  0.31790354  1
  C  C9  4  0.38071986  0.63570473  0.85820432  1
  C  C10  4  0.41754319  0.84158938  0.29683815  1
  C  C11  4  0.45796185  0.67741580  0.71628900  1
  C  C12  4  0.46870588  0.73952556  0.40309359  1
  C  C13  4  0.47202672  0.08802747  0.65739376  1
  C  C14  4  0.56892693  0.30146926  0.86093631  1
  C  C15  4  0.57332788  0.12382082  0.61812610  1
  C  C16  4  0.62045304  0.23361838  0.71688612  1
  O  O17  4  0.24754404  0.24261759  0.81188682  1
  O  O18  4  0.27418866  -0.00364680  0.82844768  1
  O  O19  4  0.41391041  0.31694071  1.05139048  1
  O  O20  4  0.54683946  0.70731116  0.73938146  1
