###############################################################################################
#
# CIF file generated by modified CIFWriter class 
# in pymatgen (v2025.03.10) https://pymatgen.org/
#
###############################################################################################
data_PBE+MBD_tight_b7b0dab3883da16
_symmetry_space_group_name_H-M   P4_3
_cell_length_a   10.78689842
_cell_length_b   10.78689842
_cell_length_c   8.10402612
_cell_angle_alpha   90.00000000
_cell_angle_beta   90.00000000
_cell_angle_gamma   90.00000000
_symmetry_Int_Tables_number   78
_chemical_formula_moiety   'C9 H8 O4'
_chemical_formula_sum   'H32 C36 O16'
_cell_volume   942.96160661
_cell_formula_units_Z   4
loop_
 _symmetry_equiv_pos_site_id
 _symmetry_equiv_pos_as_xyz
  1  'x, y, z'
  2  '-y, x, z+3/4'
  3  '-x, -y, z+1/2'
  4  'y, -x, z+1/4'
loop_
 _atom_site_type_symbol
 _atom_site_label
 _atom_site_symmetry_multiplicity
 _atom_site_fract_x
 _atom_site_fract_y
 _atom_site_fract_z
 _atom_site_occupancy
  H  H0  4  -0.28496250  0.53089235  0.45581923  1
  H  H1  4  -0.25737178  0.65254958  0.31164713  1
  H  H2  4  -0.21535492  0.49451448  0.26359105  1
  H  H3  4  -0.03711202  0.80027453  0.75682253  1
  H  H4  4  0.06974445  0.62483663  0.09036615  1
  H  H5  4  0.14806813  0.16468138  0.64151676  1
  H  H6  4  0.20474713  0.36356461  0.49987987  1
  H  H7  4  0.30649741  0.35807529  0.22746240  1
  C  C8  4  -0.22115670  0.56536041  0.36036461  1
  C  C9  4  -0.09661038  0.57968949  0.43754797  1
  C  C10  4  0.04883869  0.72403671  0.54123367  1
  C  C11  4  0.05033626  0.77969804  0.69593538  1
  C  C12  4  0.15922440  0.69447876  0.45836175  1
  C  C13  4  0.16358035  0.80633623  0.77142476  1
  C  C14  4  0.16365946  0.63868395  0.29027149  1
  C  C15  4  0.22559351  0.27445988  0.44325658  1
  C  C16  4  0.27173959  0.71790709  0.53885120  1
  O  O17  4  -0.06778408  0.69979265  0.47173278  1
  O  O18  4  -0.02668961  0.49403817  0.47071092  1
  O  O19  4  0.07235469  0.67849275  0.19113188  1
  O  O20  4  0.24442762  0.56615730  0.24674337  1
