###############################################################################################
#
# CIF file generated by modified CIFWriter class 
# in pymatgen (v2025.03.10) https://pymatgen.org/
#
###############################################################################################
data_PBE+MBD_tight_ba2fb056ec73656
_symmetry_space_group_name_H-M   P2_1/c
_cell_length_a   10.47172765
_cell_length_b   5.79321864
_cell_length_c   14.17422110
_cell_angle_alpha   90.00000000
_cell_angle_beta   89.51444948
_cell_angle_gamma   90.00000000
_symmetry_Int_Tables_number   14
_chemical_formula_moiety   'C9 H8 O4'
_chemical_formula_sum   'H32 C36 O16'
_cell_volume   859.84835757
_cell_formula_units_Z   4
loop_
 _symmetry_equiv_pos_site_id
 _symmetry_equiv_pos_as_xyz
  1  'x, y, z'
  2  '-x, -y, -z'
  3  '-x, y+1/2, -z+1/2'
  4  'x, -y+1/2, z+1/2'
loop_
 _atom_site_type_symbol
 _atom_site_label
 _atom_site_symmetry_multiplicity
 _atom_site_fract_x
 _atom_site_fract_y
 _atom_site_fract_z
 _atom_site_occupancy
  H  H0  4  0.04068859  0.59066468  0.27043398  1
  H  H1  4  0.06548900  1.20222125  0.97858458  1
  H  H2  4  0.13141729  0.31100773  0.59326117  1
  H  H3  4  0.21898191  0.17899926  0.49731828  1
  H  H4  4  0.29540039  1.21135027  0.26283520  1
  H  H5  4  0.35336088  0.51242695  0.10388482  1
  H  H6  4  0.46192346  0.33882226  0.54006552  1
  H  H7  4  0.47755652  -0.29339752  0.69964025  1
  C  C8  4  0.15500458  1.18030975  1.01783941  1
  C  C9  4  0.15879959  0.84482869  0.30048074  1
  C  C10  4  0.20828970  0.94755595  0.99502973  1
  C  C11  4  0.29025129  0.88798954  0.33574361  1
  C  C12  4  0.35080227  0.40957465  0.80473261  1
  C  C13  4  0.36001110  0.76288302  0.89381478  1
  C  C14  4  0.45304410  0.02160959  0.62053896  1
  C  C15  4  0.47776755  1.13568744  0.32597446  1
  C  C16  4  0.48725666  0.71928786  0.91444914  1
  O  O17  4  0.09195024  1.00513452  0.27182569  1
  O  O18  4  0.12645023  0.87587716  0.79967564  1
  O  O19  4  0.17175596  0.76440336  1.02667166  1
  O  O20  4  0.30808396  0.53535344  0.43102847  1
