###############################################################################################
#
# CIF file generated by modified CIFWriter class 
# in pymatgen (v2025.03.10) https://pymatgen.org/
#
###############################################################################################
data_PBE+MBD_tight_baf0488a36b198f
_symmetry_space_group_name_H-M   P2_1/c
_cell_length_a   9.02685241
_cell_length_b   7.37030279
_cell_length_c   14.75943742
_cell_angle_alpha   90.00000000
_cell_angle_beta   61.49129264
_cell_angle_gamma   90.00000000
_symmetry_Int_Tables_number   14
_chemical_formula_moiety   'C9 H8 O4'
_chemical_formula_sum   'H32 C36 O16'
_cell_volume   862.88742297
_cell_formula_units_Z   4
loop_
 _symmetry_equiv_pos_site_id
 _symmetry_equiv_pos_as_xyz
  1  'x, y, z'
  2  '-x, -y, -z'
  3  '-x, y+1/2, -z+1/2'
  4  'x, -y+1/2, z+1/2'
loop_
 _atom_site_type_symbol
 _atom_site_label
 _atom_site_symmetry_multiplicity
 _atom_site_fract_x
 _atom_site_fract_y
 _atom_site_fract_z
 _atom_site_occupancy
  H  H0  4  -0.18993859  0.62246765  0.20173899  1
  H  H1  4  -0.12194055  0.88897974  0.56754325  1
  H  H2  4  -0.04698294  1.04993898  0.62808836  1
  H  H3  4  0.03418970  1.10453672  0.16861848  1
  H  H4  4  0.22874798  0.13724105  0.64382761  1
  H  H5  4  0.41762144  -0.14793363  1.15134059  1
  H  H6  4  0.42242441  0.60338667  -0.18849635  1
  H  H7  4  0.49158016  -0.37587893  1.01654268  1
  C  C8  4  -0.08211146  0.59177544  0.12613600  1
  C  C9  4  0.06057389  0.71371811  0.11018012  1
  C  C10  4  0.15540979  0.38567031  0.59874182  1
  C  C11  4  0.20155696  0.98161550  0.02292938  1
  C  C12  4  0.26457830  0.24184336  0.58472581  1
  C  C13  4  0.35401795  0.99280917  -0.06948812  1
  C  C14  4  0.41563642  0.63982938  0.34437926  1
  C  C15  4  0.41860926  1.26898506  -0.00548632  1
  C  C16  4  0.46112097  0.36054509  0.41804316  1
  O  O17  4  0.08623985  0.65602056  0.53754000  1
  O  O18  4  0.14269397  0.70460622  0.15551528  1
  O  O19  4  0.36699316  0.81004171  0.37151889  1
  O  O20  4  0.48881092  0.40540345  0.74569378  1
