###############################################################################################
#
# CIF file generated by modified CIFWriter class 
# in pymatgen (v2025.03.10) https://pymatgen.org/
#
###############################################################################################
data_PBE+MBD_tight_bc18250752c1713
_symmetry_space_group_name_H-M   P2_1/c
_cell_length_a   7.81925318
_cell_length_b   11.85496487
_cell_length_c   10.26751603
_cell_angle_alpha   90.00000000
_cell_angle_beta   89.55331754
_cell_angle_gamma   90.00000000
_symmetry_Int_Tables_number   14
_chemical_formula_moiety   'C9 H8 O4'
_chemical_formula_sum   'H32 C36 O16'
_cell_volume   951.73871918
_cell_formula_units_Z   4
loop_
 _symmetry_equiv_pos_site_id
 _symmetry_equiv_pos_as_xyz
  1  'x, y, z'
  2  '-x, -y, -z'
  3  '-x, y+1/2, -z+1/2'
  4  'x, -y+1/2, z+1/2'
loop_
 _atom_site_type_symbol
 _atom_site_label
 _atom_site_symmetry_multiplicity
 _atom_site_fract_x
 _atom_site_fract_y
 _atom_site_fract_z
 _atom_site_occupancy
  H  H0  4  -0.32471102  0.01200126  0.46328501  1
  H  H1  4  -0.27668856  0.21369919  0.52004710  1
  H  H2  4  -0.11682112  0.58723309  0.81975355  1
  H  H3  4  0.13442476  0.47252890  0.47585305  1
  H  H4  4  0.13908080  0.48337605  0.73274401  1
  H  H5  4  0.38183481  0.71506121  0.71373733  1
  H  H6  4  0.45890169  0.10762370  0.79160648  1
  H  H7  4  0.46616722  0.19922586  0.65525333  1
  C  C8  4  -0.21331368  0.05663026  0.42548457  1
  C  C9  4  -0.18554732  0.33127475  0.95855115  1
  C  C10  4  -0.09612333  0.00089937  0.34509567  1
  C  C11  4  -0.04033346  0.27280711  0.91369974  1
  C  C12  4  -0.02177368  0.34674381  0.45336474  1
  C  C13  4  0.04717403  0.05783743  0.29726767  1
  C  C14  4  0.07491443  0.33026833  0.83131164  1
  C  C15  4  0.36590476  0.27117401  0.83252549  1
  C  C16  4  0.48621143  0.19470460  0.76069544  1
  O  O17  4  -0.14954815  0.09716943  0.98694300  1
  O  O18  4  0.13451868  0.11207674  0.95097994  1
  O  O19  4  0.20984052  0.27330719  0.77091612  1
  O  O20  4  0.39420701  0.17590246  0.43082430  1
