###############################################################################################
#
# CIF file generated by modified CIFWriter class 
# in pymatgen (v2025.03.10) https://pymatgen.org/
#
###############################################################################################
data_PBE+MBD_tight_be1b44c75a83252
_symmetry_space_group_name_H-M   Pna2_1
_cell_length_a   15.01715011
_cell_length_b   11.65563278
_cell_length_c   5.18260273
_cell_angle_alpha   90.00000000
_cell_angle_beta   90.00000000
_cell_angle_gamma   90.00000000
_symmetry_Int_Tables_number   33
_chemical_formula_moiety   'C9 H8 O4'
_chemical_formula_sum   'H32 C36 O16'
_cell_volume   907.13369246
_cell_formula_units_Z   4
loop_
 _symmetry_equiv_pos_site_id
 _symmetry_equiv_pos_as_xyz
  1  'x, y, z'
  2  '-x, -y, z+1/2'
  3  '-x+1/2, y+1/2, z+1/2'
  4  'x+1/2, -y+1/2, z'
loop_
 _atom_site_type_symbol
 _atom_site_label
 _atom_site_symmetry_multiplicity
 _atom_site_fract_x
 _atom_site_fract_y
 _atom_site_fract_z
 _atom_site_occupancy
  H  H0  4  0.00913399  0.12007515  -0.09205248  1
  H  H1  4  0.04559844  0.67721493  0.18229015  1
  H  H2  4  0.04877839  0.48622922  -0.02502418  1
  H  H3  4  0.10142765  0.05896967  0.07126575  1
  H  H4  4  0.12016832  0.15337180  -0.19621594  1
  H  H5  4  0.14133613  0.71459718  0.57151431  1
  H  H6  4  0.20899247  0.69625198  1.10902393  1
  H  H7  4  0.24106608  0.55927336  0.73203542  1
  C  C8  4  0.07695655  0.23482999  0.15657966  1
  C  C9  4  0.07776333  0.13645417  -0.02891020  1
  C  C10  4  0.08825247  0.61041210  0.26222173  1
  C  C11  4  0.08971268  0.50300560  0.14397906  1
  C  C12  4  0.14198590  0.63105034  0.47785262  1
  C  C13  4  0.14351863  0.41548416  0.24008029  1
  C  C14  4  0.19730249  0.54447418  0.56820186  1
  C  C15  4  0.19924320  0.43533800  0.45334577  1
  C  C16  4  0.23708260  0.85236475  1.07011280  1
  O  O17  4  0.02501416  0.24849142  0.33254893  1
  O  O18  4  0.14425963  0.31256033  0.10295141  1
  O  O19  4  0.17541371  0.88206053  1.20836849  1
  O  O20  4  0.24608088  0.24132100  0.51407757  1
