###############################################################################################
#
# CIF file generated by modified CIFWriter class 
# in pymatgen (v2025.03.10) https://pymatgen.org/
#
###############################################################################################
data_PBE+MBD_tight_c3acf53dc78b375
_symmetry_space_group_name_H-M   P2_1/c
_cell_length_a   8.06034763
_cell_length_b   16.48708926
_cell_length_c   6.53480640
_cell_angle_alpha   90.00000000
_cell_angle_beta   94.83931868
_cell_angle_gamma   90.00000000
_symmetry_Int_Tables_number   14
_chemical_formula_moiety   'C9 H8 O4'
_chemical_formula_sum   'H32 C36 O16'
_cell_volume   865.32559463
_cell_formula_units_Z   4
loop_
 _symmetry_equiv_pos_site_id
 _symmetry_equiv_pos_as_xyz
  1  'x, y, z'
  2  '-x, -y, -z'
  3  '-x, y+1/2, -z+1/2'
  4  'x, -y+1/2, z+1/2'
loop_
 _atom_site_type_symbol
 _atom_site_label
 _atom_site_symmetry_multiplicity
 _atom_site_fract_x
 _atom_site_fract_y
 _atom_site_fract_z
 _atom_site_occupancy
  H  H0  4  -0.07593782  0.21879041  0.97460420  1
  H  H1  4  -0.05419675  0.07490315  0.87548354  1
  H  H2  4  0.07900363  -0.13984346  0.63987880  1
  H  H3  4  0.18220687  0.19482660  0.51464255  1
  H  H4  4  0.24041956  -0.14404023  0.46856281  1
  H  H5  4  0.28768385  -0.14689333  0.74488537  1
  H  H6  4  0.35518972  0.51363250  0.79441346  1
  H  H7  4  0.45508773  0.24409765  0.95133746  1
  C  C8  4  0.04569389  0.19395810  0.94873991  1
  C  C9  4  0.05650570  0.38710082  0.39183288  1
  C  C10  4  0.18902926  0.25844913  0.47123858  1
  C  C11  4  0.20727833  0.62141364  0.11712933  1
  C  C12  4  0.20990237  0.07985890  0.85553328  1
  C  C13  4  0.21237051  0.53090296  0.12112585  1
  C  C14  4  0.34186416  0.20774235  0.93627723  1
  C  C15  4  0.35669620  0.37358467  0.37598097  1
  C  C16  4  0.47388391  0.59934583  0.67058346  1
  O  O17  4  0.21064093  -0.00346415  0.81626927  1
  O  O18  4  0.21343569  0.48575430  -0.02736377  1
  O  O19  4  0.35271236  0.64453228  0.65154767  1
  O  O20  4  0.46610193  0.52325734  0.74104201  1
