###############################################################################################
#
# CIF file generated by modified CIFWriter class 
# in pymatgen (v2025.03.10) https://pymatgen.org/
#
###############################################################################################
data_PBE+MBD_tight_c42b1d726d20033
_symmetry_space_group_name_H-M   P4_3
_cell_length_a   7.35390052
_cell_length_b   7.35390052
_cell_length_c   16.97735781
_cell_angle_alpha   90.00000000
_cell_angle_beta   90.00000000
_cell_angle_gamma   90.00000000
_symmetry_Int_Tables_number   78
_chemical_formula_moiety   'C9 H8 O4'
_chemical_formula_sum   'H32 C36 O16'
_cell_volume   918.13301300
_cell_formula_units_Z   4
loop_
 _symmetry_equiv_pos_site_id
 _symmetry_equiv_pos_as_xyz
  1  'x, y, z'
  2  '-y, x, z+3/4'
  3  '-x, -y, z+1/2'
  4  'y, -x, z+1/4'
loop_
 _atom_site_type_symbol
 _atom_site_label
 _atom_site_symmetry_multiplicity
 _atom_site_fract_x
 _atom_site_fract_y
 _atom_site_fract_z
 _atom_site_occupancy
  H  H0  4  -0.17809684  1.28573185  0.85346941  1
  H  H1  4  -0.12087021  1.60294277  0.81287312  1
  H  H2  4  -0.04571647  0.05715215  0.57586880  1
  H  H3  4  0.01571306  0.74636439  0.50478621  1
  H  H4  4  0.16304712  1.67991054  0.73822487  1
  H  H5  4  0.16412622  0.66156041  0.57958159  1
  H  H6  4  0.16709408  0.56404769  0.48236998  1
  H  H7  4  0.32796012  -0.41421401  0.16253921  1
  C  C8  4  -0.23187560  0.23691838  0.51833840  1
  C  C9  4  -0.06527264  0.49730613  0.55394433  1
  C  C10  4  -0.05214061  1.32008777  0.82322512  1
  C  C11  4  -0.02018771  1.49900268  0.79969331  1
  C  C12  4  0.07724974  1.18650105  0.80762753  1
  C  C13  4  0.08163140  0.62361446  0.52833817  1
  C  C14  4  0.13760896  1.54191342  0.75888791  1
  C  C15  4  0.26994286  1.40977770  0.74185795  1
  C  C16  4  0.43023279  1.47107309  0.69481071  1
  O  O17  4  -0.36059958  0.57394260  0.44655306  1
  O  O18  4  -0.15484943  0.51509517  0.61401474  1
  O  O19  4  -0.08954866  0.35803062  0.50231340  1
  O  O20  4  0.42781482  1.61442465  0.65775482  1
