###############################################################################################
#
# CIF file generated by modified CIFWriter class 
# in pymatgen (v2025.03.10) https://pymatgen.org/
#
###############################################################################################
data_PBE+MBD_tight_c47a2b2889f0b23
_symmetry_space_group_name_H-M   P2_1/c
_cell_length_a   9.34194842
_cell_length_b   13.20440886
_cell_length_c   6.80689739
_cell_angle_alpha   90.00000000
_cell_angle_beta   85.33997329
_cell_angle_gamma   90.00000000
_symmetry_Int_Tables_number   14
_chemical_formula_moiety   'C9 H8 O4'
_chemical_formula_sum   'H32 C36 O16'
_cell_volume   836.88852113
_cell_formula_units_Z   4
loop_
 _symmetry_equiv_pos_site_id
 _symmetry_equiv_pos_as_xyz
  1  'x, y, z'
  2  '-x, -y, -z'
  3  '-x, y+1/2, -z+1/2'
  4  'x, -y+1/2, z+1/2'
loop_
 _atom_site_type_symbol
 _atom_site_label
 _atom_site_symmetry_multiplicity
 _atom_site_fract_x
 _atom_site_fract_y
 _atom_site_fract_z
 _atom_site_occupancy
  H  H0  4  -0.10593659  0.67735717  0.57078047  1
  H  H1  4  -0.09954785  0.81247777  -0.19093367  1
  H  H2  4  -0.03829533  0.78990186  0.45646960  1
  H  H3  4  -0.00769442  0.48388806  0.77071882  1
  H  H4  4  0.31600450  0.43651079  0.26159537  1
  H  H5  4  0.33931226  0.27070319  0.44147030  1
  H  H6  4  0.42005318  0.78701920  0.47687447  1
  H  H7  4  0.46409663  1.03526217  0.33829557  1
  C  C8  4  -0.04445222  0.79247117  -0.06091657  1
  C  C9  4  0.10045141  0.65975414  0.42993277  1
  C  C10  4  0.19657800  0.50270624  0.79054188  1
  C  C11  4  0.31078074  0.84119247  0.10870674  1
  C  C12  4  0.31944963  0.56832326  0.71670955  1
  C  C13  4  0.42023348  0.09150936  0.79805040  1
  C  C14  4  0.43254983  0.71584939  0.55410343  1
  C  C15  4  0.43293417  0.18262998  0.89923857  1
  C  C16  4  0.45698795  0.96413914  0.25875471  1
  O  O17  4  0.06707906  0.96194794  0.25209092  1
  O  O18  4  0.14429360  0.59159431  0.31964929  1
  O  O19  4  0.18030783  0.79803253  0.06688245  1
  O  O20  4  0.21297201  0.42292878  0.87786009  1
