###############################################################################################
#
# CIF file generated by modified CIFWriter class 
# in pymatgen (v2025.03.10) https://pymatgen.org/
#
###############################################################################################
data_PBE+MBD_tight_c5784f97a96ee4d
_symmetry_space_group_name_H-M   P4_1
_cell_length_a   15.72912215
_cell_length_b   15.72912215
_cell_length_c   4.23854782
_cell_angle_alpha   90.00000000
_cell_angle_beta   90.00000000
_cell_angle_gamma   90.00000000
_symmetry_Int_Tables_number   76
_chemical_formula_moiety   'C9 H8 O4'
_chemical_formula_sum   'H32 C36 O16'
_cell_volume   1048.63912637
_cell_formula_units_Z   4
loop_
 _symmetry_equiv_pos_site_id
 _symmetry_equiv_pos_as_xyz
  1  'x, y, z'
  2  '-y, x, z+1/4'
  3  '-x, -y, z+1/2'
  4  'y, -x, z+3/4'
loop_
 _atom_site_type_symbol
 _atom_site_label
 _atom_site_symmetry_multiplicity
 _atom_site_fract_x
 _atom_site_fract_y
 _atom_site_fract_z
 _atom_site_occupancy
  H  H0  4  -0.18863546  0.61062168  0.19279366  1
  H  H1  4  -0.13607688  0.74672759  0.42195302  1
  H  H2  4  -0.09014437  0.51978425  -0.12075255  1
  H  H3  4  0.06125767  0.56464138  -0.18794305  1
  H  H4  4  0.11014825  0.87930271  0.57319905  1
  H  H5  4  0.24422231  0.28141013  0.27976217  1
  H  H6  4  0.28372725  0.66379801  -0.21401645  1
  H  H7  4  0.33047599  0.65965288  0.17029419  1
  C  C8  4  -0.12275631  0.63002280  0.15905428  1
  C  C9  4  -0.09358919  0.70575271  0.28799841  1
  C  C10  4  -0.06735941  0.57851333  -0.01350537  1
  C  C11  4  -0.00843822  0.73132892  0.25661278  1
  C  C12  4  0.01658237  0.81297147  0.41014376  1
  C  C13  4  0.01718054  0.60264790  -0.04916875  1
  C  C14  4  0.04644840  0.67757570  0.08790435  1
  C  C15  4  0.19465178  0.65586711  0.15857322  1
  C  C16  4  0.27830599  0.68616592  0.03085247  1
  O  O17  4  -0.03662239  0.86677968  0.48929518  1
  O  O18  4  0.09840382  0.82204181  0.46497671  1
  O  O19  4  0.13006844  0.70185966  0.02862791  1
  O  O20  4  0.18461757  0.59850705  0.34677317  1
