###############################################################################################
#
# CIF file generated by modified CIFWriter class 
# in pymatgen (v2025.03.10) https://pymatgen.org/
#
###############################################################################################
data_PBE+MBD_tight_c5dd993ba535597
_symmetry_space_group_name_H-M   P2_12_12_1
_cell_length_a   8.92654864
_cell_length_b   14.89615723
_cell_length_c   6.29261494
_cell_angle_alpha   90.00000000
_cell_angle_beta   90.00000000
_cell_angle_gamma   90.00000000
_symmetry_Int_Tables_number   19
_chemical_formula_moiety   'C9 H8 O4'
_chemical_formula_sum   'H32 C36 O16'
_cell_volume   836.73701231
_cell_formula_units_Z   4
loop_
 _symmetry_equiv_pos_site_id
 _symmetry_equiv_pos_as_xyz
  1  'x, y, z'
  2  '-x, y+1/2, -z+1/2'
  3  '-x+1/2, -y, z+1/2'
  4  'x+1/2, -y+1/2, -z'
loop_
 _atom_site_type_symbol
 _atom_site_label
 _atom_site_symmetry_multiplicity
 _atom_site_fract_x
 _atom_site_fract_y
 _atom_site_fract_z
 _atom_site_occupancy
  H  H0  4  -0.19220067  0.15955734  -0.21752375  1
  H  H1  4  -0.18617632  -0.08066159  -0.05589576  1
  H  H2  4  -0.08917419  0.25288637  -0.12936195  1
  H  H3  4  0.05371011  -0.11537864  0.54817024  1
  H  H4  4  0.08026570  0.21509554  0.46305656  1
  H  H5  4  0.16457614  -0.02284370  0.83704978  1
  H  H6  4  0.18156705  0.14344787  0.79167812  1
  H  H7  4  0.20970241  0.24955232  1.09610257  1
  C  C8  4  -0.18693642  0.21115552  -0.09304871  1
  C  C9  4  -0.16888363  0.16539149  0.11640892  1
  C  C10  4  -0.05051378  -0.06764792  0.17899702  1
  C  C11  4  0.00474046  -0.00427671  0.34514138  1
  C  C12  4  0.01232026  0.08942142  0.32701219  1
  C  C13  4  0.06059232  -0.04285688  0.53260888  1
  C  C14  4  0.07534074  0.14254619  0.48554896  1
  C  C15  4  0.12209846  0.00909804  0.69351002  1
  C  C16  4  0.13078569  0.10206889  0.66884737  1
  O  O17  4  -0.15627182  -0.03397485  0.05081572  1
  O  O18  4  -0.02778631  0.13283103  0.13780926  1
  O  O19  4  -0.00386651  -0.14481251  0.16659463  1
  O  O20  4  0.23330036  0.34329087  0.74957321  1
