###############################################################################################
#
# CIF file generated by modified CIFWriter class 
# in pymatgen (v2025.03.10) https://pymatgen.org/
#
###############################################################################################
data_PBE+MBD_tight_c72f72ddebcce65
_symmetry_space_group_name_H-M   Pna2_1
_cell_length_a   9.87856698
_cell_length_b   17.92695677
_cell_length_c   4.87325306
_cell_angle_alpha   90.00000000
_cell_angle_beta   90.00000000
_cell_angle_gamma   90.00000000
_symmetry_Int_Tables_number   33
_chemical_formula_moiety   'C9 H8 O4'
_chemical_formula_sum   'H32 C36 O16'
_cell_volume   863.01726534
_cell_formula_units_Z   4
loop_
 _symmetry_equiv_pos_site_id
 _symmetry_equiv_pos_as_xyz
  1  'x, y, z'
  2  '-x, -y, z+1/2'
  3  '-x+1/2, y+1/2, z+1/2'
  4  'x+1/2, -y+1/2, z'
loop_
 _atom_site_type_symbol
 _atom_site_label
 _atom_site_symmetry_multiplicity
 _atom_site_fract_x
 _atom_site_fract_y
 _atom_site_fract_z
 _atom_site_occupancy
  H  H0  4  -0.00708404  0.01251484  0.76289295  1
  H  H1  4  0.07007925  0.74720916  0.50236975  1
  H  H2  4  0.09476160  0.60709259  0.46492980  1
  H  H3  4  0.12308153  0.24684145  0.62968508  1
  H  H4  4  0.12721364  0.36490658  0.95793126  1
  H  H5  4  0.12881090  0.39816741  0.61053592  1
  H  H6  4  0.21157125  0.81602313  0.83777816  1
  H  H7  4  0.21547252  -0.11676925  0.28871446  1
  C  C8  4  0.07379198  0.10461460  0.65477301  1
  C  C9  4  0.14097881  0.71679143  0.63226168  1
  C  C10  4  0.15286995  0.63964792  0.61197922  1
  C  C11  4  0.17295396  0.48026334  0.90893714  1
  C  C12  4  0.17347464  0.13947650  0.46724049  1
  C  C13  4  0.17893547  0.40125400  0.81165857  1
  C  C14  4  0.18694865  0.21746094  0.48325395  1
  C  C15  4  0.22120685  0.75572039  0.82013791  1
  C  C16  4  0.24352683  0.60152557  0.77927673  1
  O  O17  4  0.01437954  0.13853709  0.83590110  1
  O  O18  4  0.05141505  0.03074242  0.61185964  1
  O  O19  4  0.11053671  0.50440827  1.10278329  1
  O  O20  4  0.24879296  0.02469669  0.23964275  1
