###############################################################################################
#
# CIF file generated by modified CIFWriter class 
# in pymatgen (v2025.03.10) https://pymatgen.org/
#
###############################################################################################
data_PBE+MBD_tight_c86635a425fb844
_symmetry_space_group_name_H-M   Cc
_cell_length_a   14.62851733
_cell_length_b   12.11732932
_cell_length_c   6.72452632
_cell_angle_alpha   90.00000000
_cell_angle_beta   48.89364138
_cell_angle_gamma   90.00000000
_symmetry_Int_Tables_number   9
_chemical_formula_moiety   'C9 H8 O4'
_chemical_formula_sum   'H32 C36 O16'
_cell_volume   898.14542448
_cell_formula_units_Z   4
loop_
 _symmetry_equiv_pos_site_id
 _symmetry_equiv_pos_as_xyz
  1  'x, y, z'
  2  'x, -y, z+1/2'
  3  'x+1/2, y+1/2, z'
  4  'x+1/2, -y+1/2, z+1/2'
loop_
 _atom_site_type_symbol
 _atom_site_label
 _atom_site_symmetry_multiplicity
 _atom_site_fract_x
 _atom_site_fract_y
 _atom_site_fract_z
 _atom_site_occupancy
  H  H0  4  -0.19648969  0.82816940  0.76180361  1
  H  H1  4  -0.15832017  0.94770857  1.33464326  1
  H  H2  4  -0.12208060  0.67022223  0.45476507  1
  H  H3  4  0.03814817  0.45333696  -0.13536153  1
  H  H4  4  0.09195749  0.13890489  0.70073739  1
  H  H5  4  0.12833043  0.41149327  0.06715485  1
  H  H6  4  0.20919456  0.23428823  0.48113811  1
  H  H7  4  0.23443749  0.08734702  0.41776683  1
  C  C8  4  -0.13688057  0.88732816  1.03979972  1
  C  C9  4  -0.12616894  0.77411328  0.71964939  1
  C  C10  4  -0.08488377  0.31464806  0.04880329  1
  C  C11  4  -0.08040497  0.79597253  0.84520501  1
  C  C12  4  0.00512379  0.38318816  -0.00265324  1
  C  C13  4  0.01336083  0.27233319  0.28383090  1
  C  C14  4  0.05510557  0.36110022  0.11189315  1
  C  C15  4  0.12683602  0.84127270  0.84331114  1
  C  C16  4  0.17005241  0.15513337  0.49168765  1
  O  O17  4  -0.19558681  0.96298666  1.04526366  1
  O  O18  4  -0.12544490  0.87941868  1.21856541  1
  O  O19  4  0.06763789  0.25804875  0.39039791  1
  O  O20  4  0.13859435  0.08800854  0.20154079  1
