###############################################################################################
#
# CIF file generated by modified CIFWriter class 
# in pymatgen (v2025.03.10) https://pymatgen.org/
#
###############################################################################################
data_PBE+MBD_tight_c8940731c262cbf
_symmetry_space_group_name_H-M   P2/c
_cell_length_a   7.34343716
_cell_length_b   9.02263286
_cell_length_c   14.52471224
_cell_angle_alpha   90.00000000
_cell_angle_beta   72.88626045
_cell_angle_gamma   90.00000000
_symmetry_Int_Tables_number   13
_chemical_formula_moiety   'C9 H8 O4'
_chemical_formula_sum   'H32 C36 O16'
_cell_volume   919.75467881
_cell_formula_units_Z   4
loop_
 _symmetry_equiv_pos_site_id
 _symmetry_equiv_pos_as_xyz
  1  'x, y, z'
  2  '-x, -y, -z'
  3  '-x, y, -z+1/2'
  4  'x, -y, z+1/2'
loop_
 _atom_site_type_symbol
 _atom_site_label
 _atom_site_symmetry_multiplicity
 _atom_site_fract_x
 _atom_site_fract_y
 _atom_site_fract_z
 _atom_site_occupancy
  H  H0  4  -0.00304777  0.14795826  0.56029446  1
  H  H1  4  0.04994612  -0.05246319  0.66747836  1
  H  H2  4  0.08416717  0.53153660  0.39439139  1
  H  H3  4  0.11254337  0.57041026  0.78349475  1
  H  H4  4  0.26243852  0.55757867  0.60623853  1
  H  H5  4  0.31059242  0.48362828  0.80892772  1
  H  H6  4  0.36562414  -0.07407757  0.69960143  1
  H  H7  4  0.36972857  0.90644979  0.38556389  1
  C  C8  4  0.13491389  0.86645757  1.07295632  1
  C  C9  4  0.16573987  0.02341995  0.63388591  1
  C  C10  4  0.17572514  0.54274514  0.84076576  1
  C  C11  4  0.21650010  0.31663819  0.38605130  1
  C  C12  4  0.28296736  0.77139214  1.02719940  1
  C  C13  4  0.34271215  0.98923668  1.15089053  1
  C  C14  4  0.36390099  0.69825137  0.51093116  1
  C  C15  4  0.46480491  0.78515235  1.04004305  1
  C  C16  4  0.48999713  0.10535693  0.60417281  1
  O  O17  4  0.21275014  0.70510638  0.49193339  1
  O  O18  4  0.23034774  0.19389042  0.35095108  1
  O  O19  4  0.24282273  0.34630256  0.47383258  1
  O  O20  4  0.38321415  0.61104920  0.58370913  1
