###############################################################################################
#
# CIF file generated by modified CIFWriter class 
# in pymatgen (v2025.03.10) https://pymatgen.org/
#
###############################################################################################
data_PBE+MBD_tight_cbb1129be5ff561
_symmetry_space_group_name_H-M   P2_12_12
_cell_length_a   6.88480870
_cell_length_b   9.46033261
_cell_length_c   13.88080920
_cell_angle_alpha   90.00000000
_cell_angle_beta   90.00000000
_cell_angle_gamma   90.00000000
_symmetry_Int_Tables_number   18
_chemical_formula_moiety   'C9 H8 O4'
_chemical_formula_sum   'H32 C36 O16'
_cell_volume   904.09291961
_cell_formula_units_Z   4
loop_
 _symmetry_equiv_pos_site_id
 _symmetry_equiv_pos_as_xyz
  1  'x, y, z'
  2  '-x, -y, z'
  3  'x+1/2, -y+1/2, -z'
  4  '-x+1/2, y+1/2, -z'
loop_
 _atom_site_type_symbol
 _atom_site_label
 _atom_site_symmetry_multiplicity
 _atom_site_fract_x
 _atom_site_fract_y
 _atom_site_fract_z
 _atom_site_occupancy
  H  H0  4  -0.13966145  0.93451915  0.58205548  1
  H  H1  4  -0.03240391  0.86648421  0.90993966  1
  H  H2  4  0.10942429  0.71043503  1.03653599  1
  H  H3  4  0.11644676  0.63241846  0.39963057  1
  H  H4  4  0.16517229  -0.06201831  0.18562169  1
  H  H5  4  0.18873283  0.46720081  0.35024195  1
  H  H6  4  0.21450938  -0.00863276  0.01224969  1
  H  H7  4  0.21679610  0.15889421  0.45979537  1
  C  C8  4  -0.20325400  0.85093592  0.72301838  1
  C  C9  4  0.05246528  0.77414988  0.89013652  1
  C  C10  4  0.07726438  0.74168752  0.79311665  1
  C  C11  4  0.13051910  0.68588726  0.96048422  1
  C  C12  4  0.18602626  0.62323368  0.76446476  1
  C  C13  4  0.22911936  0.58422736  0.66294979  1
  C  C14  4  0.23082945  0.56407580  0.93326702  1
  C  C15  4  0.23839783  0.57427659  0.36764131  1
  C  C16  4  0.24181187  0.03331150  0.16364671  1
  O  O17  4  -0.00588433  0.82510296  0.72183578  1
  O  O18  4  0.18843741  0.68246173  0.21238082  1
  O  O19  4  0.24672477  0.19736650  0.39607966  1
  O  O20  4  0.24904405  0.46297428  0.63455215  1
