###############################################################################################
#
# CIF file generated by modified CIFWriter class 
# in pymatgen (v2025.03.10) https://pymatgen.org/
#
###############################################################################################
data_PBE+MBD_tight_cf552df828ce5d5
_symmetry_space_group_name_H-M   P2_1/c
_cell_length_a   5.68697583
_cell_length_b   12.74536909
_cell_length_c   13.14093837
_cell_angle_alpha   90.00000000
_cell_angle_beta   65.11972891
_cell_angle_gamma   90.00000000
_symmetry_Int_Tables_number   14
_chemical_formula_moiety   'C9 H8 O4'
_chemical_formula_sum   'H32 C36 O16'
_cell_volume   864.08790012
_cell_formula_units_Z   4
loop_
 _symmetry_equiv_pos_site_id
 _symmetry_equiv_pos_as_xyz
  1  'x, y, z'
  2  '-x, -y, -z'
  3  '-x, y+1/2, -z+1/2'
  4  'x, -y+1/2, z+1/2'
loop_
 _atom_site_type_symbol
 _atom_site_label
 _atom_site_symmetry_multiplicity
 _atom_site_fract_x
 _atom_site_fract_y
 _atom_site_fract_z
 _atom_site_occupancy
  H  H0  4  -0.29650299  0.33044144  0.31401430  1
  H  H1  4  -0.16846392  0.34424926  0.47473843  1
  H  H2  4  -0.07213740  0.20264491  0.16207926  1
  H  H3  4  0.15928850  0.27935081  0.98521500  1
  H  H4  4  0.28647987  0.46709927  0.11989121  1
  H  H5  4  0.35217129  1.13496110  0.69616337  1
  H  H6  4  0.39704675  1.01635826  0.94394662  1
  H  H7  4  0.47998616  0.63329076  0.95199772  1
  C  C8  4  -0.14948399  0.27892209  0.31920002  1
  C  C9  4  -0.07928790  0.21383567  0.90874582  1
  C  C10  4  -0.02411176  0.29269946  0.73381284  1
  C  C11  4  0.10717475  0.28140822  0.91455024  1
  C  C12  4  0.17045520  0.35962273  0.73575513  1
  C  C13  4  0.22734296  0.14510925  0.33033528  1
  C  C14  4  0.31015404  0.07511020  0.13468884  1
  C  C15  4  0.34569932  0.52377510  0.86693317  1
  C  C16  4  0.43915526  1.08321654  0.62278738  1
  O  O17  4  0.14119697  -0.06008325  0.37583571  1
  O  O18  4  0.24405159  0.42502735  0.55558388  1
  O  O19  4  0.40891785  0.41921614  0.84422603  1
  O  O20  4  0.48821441  0.52166778  0.36800769  1
