###############################################################################################
#
# CIF file generated by modified CIFWriter class 
# in pymatgen (v2025.03.10) https://pymatgen.org/
#
###############################################################################################
data_PBE+MBD_tight_d04cef92033d6db
_symmetry_space_group_name_H-M   Pna2_1
_cell_length_a   10.46455767
_cell_length_b   18.64159242
_cell_length_c   4.45482865
_cell_angle_alpha   90.00000000
_cell_angle_beta   90.00000000
_cell_angle_gamma   90.00000000
_symmetry_Int_Tables_number   33
_chemical_formula_moiety   'C9 H8 O4'
_chemical_formula_sum   'H32 C36 O16'
_cell_volume   869.03023802
_cell_formula_units_Z   4
loop_
 _symmetry_equiv_pos_site_id
 _symmetry_equiv_pos_as_xyz
  1  'x, y, z'
  2  '-x, -y, z+1/2'
  3  '-x+1/2, y+1/2, z+1/2'
  4  'x+1/2, -y+1/2, z'
loop_
 _atom_site_type_symbol
 _atom_site_label
 _atom_site_symmetry_multiplicity
 _atom_site_fract_x
 _atom_site_fract_y
 _atom_site_fract_z
 _atom_site_occupancy
  H  H0  4  -0.05183151  0.74537611  0.33646731  1
  H  H1  4  -0.00837679  0.50894000  0.25917180  1
  H  H2  4  0.05948436  0.84703725  0.58076735  1
  H  H3  4  0.06793611  -0.03866105  0.21050822  1
  H  H4  4  0.16524926  -0.01838021  0.53009284  1
  H  H5  4  0.18475335  0.19607311  0.50780043  1
  H  H6  4  0.23647400  -0.05767735  0.20870017  1
  H  H7  4  0.24985600  0.32244264  0.41176486  1
  C  C8  4  -0.00164245  0.60898784  0.35484019  1
  C  C9  4  0.02914032  0.73576378  0.48428421  1
  C  C10  4  0.06745676  0.66431142  0.52933763  1
  C  C11  4  0.09258528  0.79248375  0.62032987  1
  C  C12  4  0.16194788  -0.02008084  0.28406901  1
  C  C13  4  0.17106168  0.65194564  0.72348122  1
  C  C14  4  0.18978303  0.05264310  0.15896884  1
  C  C15  4  0.19759772  0.77889275  0.80529669  1
  C  C16  4  0.23595401  0.70846560  0.85815440  1
  O  O17  4  -0.07981005  0.62297312  0.15973013  1
  O  O18  4  0.02990657  0.53975951  0.41822079  1
  O  O19  4  0.13383925  0.08276507  -0.04356593  1
  O  O20  4  0.20723386  0.58255354  0.80416485  1
