###############################################################################################
#
# CIF file generated by modified CIFWriter class 
# in pymatgen (v2025.03.10) https://pymatgen.org/
#
###############################################################################################
data_PBE+MBD_tight_d466b479ea027dd
_symmetry_space_group_name_H-M   P2_1/c
_cell_length_a   7.69422369
_cell_length_b   10.56186519
_cell_length_c   11.66187276
_cell_angle_alpha   90.00000000
_cell_angle_beta   91.18246909
_cell_angle_gamma   90.00000000
_symmetry_Int_Tables_number   14
_chemical_formula_moiety   'C9 H8 O4'
_chemical_formula_sum   'H32 C36 O16'
_cell_volume   947.50439126
_cell_formula_units_Z   4
loop_
 _symmetry_equiv_pos_site_id
 _symmetry_equiv_pos_as_xyz
  1  'x, y, z'
  2  '-x, -y, -z'
  3  '-x, y+1/2, -z+1/2'
  4  'x, -y+1/2, z+1/2'
loop_
 _atom_site_type_symbol
 _atom_site_label
 _atom_site_symmetry_multiplicity
 _atom_site_fract_x
 _atom_site_fract_y
 _atom_site_fract_z
 _atom_site_occupancy
  H  H0  4  -0.18629424  0.63406662  0.72374592  1
  H  H1  4  -0.08492895  0.72428137  0.83569764  1
  H  H2  4  0.01622055  -0.21492306  0.20133931  1
  H  H3  4  0.20281026  0.46469840  1.01354863  1
  H  H4  4  0.32601062  0.69995626  0.22988381  1
  H  H5  4  0.35059574  0.72434275  0.52867721  1
  H  H6  4  0.35233667  0.49634824  0.51160550  1
  H  H7  4  0.41037465  0.19411798  0.59228952  1
  C  C8  4  -0.06088240  -0.16136738  0.26241563  1
  C  C9  4  0.03011291  0.54496432  0.80557928  1
  C  C10  4  0.30110914  0.07659695  0.45928957  1
  C  C11  4  0.31429557  0.03644211  0.34610351  1
  C  C12  4  0.42005164  0.33576834  1.00319882  1
  C  C13  4  0.43156280  0.66759674  0.17655967  1
  C  C14  4  0.44589355  0.79029483  0.56438742  1
  C  C15  4  0.44709188  0.41811138  0.77634244  1
  C  C16  4  0.46876862  0.04363664  0.15512373  1
  O  O17  4  -0.03880442  0.05052786  0.33979005  1
  O  O18  4  0.20816187  0.56037037  0.80373877  1
  O  O19  4  0.32373367  0.02692439  0.09503200  1
  O  O20  4  0.38366166  0.53350422  0.38556899  1
