###############################################################################################
#
# CIF file generated by modified CIFWriter class 
# in pymatgen (v2025.03.10) https://pymatgen.org/
#
###############################################################################################
data_PBE+MBD_tight_d5e5f0aaea689e3
_symmetry_space_group_name_H-M   P2_12_12_1
_cell_length_a   16.40099862
_cell_length_b   4.14640278
_cell_length_c   12.31918975
_cell_angle_alpha   90.00000000
_cell_angle_beta   90.00000000
_cell_angle_gamma   90.00000000
_symmetry_Int_Tables_number   19
_chemical_formula_moiety   'C9 H8 O4'
_chemical_formula_sum   'H32 C36 O16'
_cell_volume   837.76830195
_cell_formula_units_Z   4
loop_
 _symmetry_equiv_pos_site_id
 _symmetry_equiv_pos_as_xyz
  1  'x, y, z'
  2  'x+1/2, -y+1/2, -z'
  3  '-x, y+1/2, -z+1/2'
  4  '-x+1/2, -y, z+1/2'
loop_
 _atom_site_type_symbol
 _atom_site_label
 _atom_site_symmetry_multiplicity
 _atom_site_fract_x
 _atom_site_fract_y
 _atom_site_fract_z
 _atom_site_occupancy
  H  H0  4  0.01174722  0.29961743  0.64144669  1
  H  H1  4  0.02238813  -0.09627378  0.59254215  1
  H  H2  4  0.03400098  0.94253849  0.20558497  1
  H  H3  4  0.04623354  0.73743202  0.39348184  1
  H  H4  4  0.07373287  0.22676011  0.52431155  1
  H  H5  4  0.16955218  0.93525393  -0.09646267  1
  H  H6  4  0.18236981  0.52271921  0.45731179  1
  H  H7  4  0.19938774  0.45260481  0.83484165  1
  C  C8  4  0.05523074  0.13201148  0.60331927  1
  C  C9  4  0.09263587  0.85989378  0.23582171  1
  C  C10  4  0.09966047  0.74183521  0.34089009  1
  C  C11  4  0.12564615  0.08667492  0.67857313  1
  C  C12  4  0.14010612  0.98340233  0.05194298  1
  C  C13  4  0.15910683  0.87132801  0.16418775  1
  C  C14  4  0.17462103  0.62418242  0.37643468  1
  C  C15  4  0.23481767  0.76470473  0.20389112  1
  C  C16  4  0.24180438  0.63633116  0.30777048  1
  O  O17  4  0.08170176  1.15620180  0.03069263  1
  O  O18  4  0.12165398  -0.05257187  0.76570788  1
  O  O19  4  0.19015542  0.86602684  -0.02436942  1
  O  O20  4  0.19550763  0.22296598  0.63826209  1
