###############################################################################################
#
# CIF file generated by modified CIFWriter class 
# in pymatgen (v2025.03.10) https://pymatgen.org/
#
###############################################################################################
data_PBE+MBD_tight_dbded60c3a45ac3
_symmetry_space_group_name_H-M   P4_1
_cell_length_a   11.29751327
_cell_length_b   11.29751327
_cell_length_c   8.34332608
_cell_angle_alpha   90.00000000
_cell_angle_beta   90.00000000
_cell_angle_gamma   90.00000000
_symmetry_Int_Tables_number   76
_chemical_formula_moiety   'C9 H8 O4'
_chemical_formula_sum   'H32 C36 O16'
_cell_volume   1064.89046209
_cell_formula_units_Z   4
loop_
 _symmetry_equiv_pos_site_id
 _symmetry_equiv_pos_as_xyz
  1  'x, y, z'
  2  '-y, x, z+1/4'
  3  '-x, -y, z+1/2'
  4  'y, -x, z+3/4'
loop_
 _atom_site_type_symbol
 _atom_site_label
 _atom_site_symmetry_multiplicity
 _atom_site_fract_x
 _atom_site_fract_y
 _atom_site_fract_z
 _atom_site_occupancy
  H  H0  4  -0.08650265  0.78317966  0.39031994  1
  H  H1  4  -0.07959178  0.56727472  0.81560173  1
  H  H2  4  -0.01288205  0.86108308  0.12922227  1
  H  H3  4  0.00026970  0.64469084  0.97023527  1
  H  H4  4  0.06436865  0.52093438  0.87202190  1
  H  H5  4  0.18348390  0.19346148  0.29113934  1
  H  H6  4  0.29557452  0.47234035  0.64912488  1
  H  H7  4  0.29838362  0.32617800  0.47019915  1
  C  C8  4  0.00364241  0.76522663  0.35052028  1
  C  C9  4  0.00719254  0.59874380  0.85531696  1
  C  C10  4  0.04584615  0.80914251  0.20526066  1
  C  C11  4  0.06426687  0.67660230  0.73280552  1
  C  C12  4  0.07741374  0.69733835  0.44755059  1
  C  C13  4  0.16196466  0.78602469  0.15735762  1
  C  C14  4  0.19574571  0.67481675  0.40388424  1
  C  C15  4  0.23579960  0.72073622  0.25702959  1
  C  C16  4  0.28109361  0.60346826  0.49997926  1
  O  O17  4  0.02456929  0.64729487  0.58206335  1
  O  O18  4  0.13633573  0.75397052  0.75714747  1
  O  O19  4  0.23224854  0.52175113  0.59224847  1
  O  O20  4  0.38363725  0.38949696  0.74091373  1
