###############################################################################################
#
# CIF file generated by modified CIFWriter class 
# in pymatgen (v2025.03.10) https://pymatgen.org/
#
###############################################################################################
data_PBE+MBD_tight_de4bbb19c12c18f
_symmetry_space_group_name_H-M   P2/c
_cell_length_a   12.34755616
_cell_length_b   5.78071146
_cell_length_c   15.70965605
_cell_angle_alpha   90.00000000
_cell_angle_beta   104.32062769
_cell_angle_gamma   90.00000000
_symmetry_Int_Tables_number   13
_chemical_formula_moiety   'C9 H8 O4'
_chemical_formula_sum   'H32 C36 O16'
_cell_volume   1086.47546173
_cell_formula_units_Z   4
loop_
 _symmetry_equiv_pos_site_id
 _symmetry_equiv_pos_as_xyz
  1  'x, y, z'
  2  '-x, -y, -z'
  3  '-x, y, -z+1/2'
  4  'x, -y, z+1/2'
loop_
 _atom_site_type_symbol
 _atom_site_label
 _atom_site_symmetry_multiplicity
 _atom_site_fract_x
 _atom_site_fract_y
 _atom_site_fract_z
 _atom_site_occupancy
  H  H0  4  -0.01786382  0.38555862  0.34858672  1
  H  H1  4  0.02316442  0.81912127  0.09216192  1
  H  H2  4  0.08249110  0.90354406  0.25361325  1
  H  H3  4  0.09494023  0.43682447  -0.16478689  1
  H  H4  4  0.10293833  0.74473172  -0.17399925  1
  H  H5  4  0.27813430  1.02569276  0.32144866  1
  H  H6  4  0.41260428  1.06187252  0.22819461  1
  H  H7  4  0.43088220  0.89895860  -0.04512918  1
  C  C8  4  0.07358626  0.60270037  -0.13960579  1
  C  C9  4  0.10883263  0.86806342  0.12396633  1
  C  C10  4  0.12255166  0.61359759  -0.04244413  1
  C  C11  4  0.14240970  0.91741962  0.21327735  1
  C  C12  4  0.18598328  0.88204051  0.07286259  1
  C  C13  4  0.25195635  0.98651652  0.25155554  1
  C  C14  4  0.29686493  0.95121580  0.10950814  1
  C  C15  4  0.32739634  1.00567759  0.19949830  1
  C  C16  4  0.38531228  0.97177927  0.06063047  1
  O  O17  4  0.13679527  0.45145618  0.00782014  1
  O  O18  4  0.14796281  0.83908463  -0.01669879  1
  O  O19  4  0.36385556  0.87555560  -0.01791786  1
  O  O20  4  0.47483702  1.07190454  0.09422307  1
