###############################################################################################
#
# CIF file generated by modified CIFWriter class 
# in pymatgen (v2025.03.10) https://pymatgen.org/
#
###############################################################################################
data_PBE+MBD_tight_e608b82994452b8
_symmetry_space_group_name_H-M   Pnc2
_cell_length_a   15.23515456
_cell_length_b   7.53015209
_cell_length_c   7.80039790
_cell_angle_alpha   90.00000000
_cell_angle_beta   90.00000000
_cell_angle_gamma   90.00000000
_symmetry_Int_Tables_number   30
_chemical_formula_moiety   'C9 H8 O4'
_chemical_formula_sum   'H32 C36 O16'
_cell_volume   894.88528962
_cell_formula_units_Z   4
loop_
 _symmetry_equiv_pos_site_id
 _symmetry_equiv_pos_as_xyz
  1  'x, y, z'
  2  '-x, -y, z'
  3  '-x, y+1/2, z+1/2'
  4  'x, -y+1/2, z+1/2'
loop_
 _atom_site_type_symbol
 _atom_site_label
 _atom_site_symmetry_multiplicity
 _atom_site_fract_x
 _atom_site_fract_y
 _atom_site_fract_z
 _atom_site_occupancy
  H  H0  4  -0.00867926  0.66957804  0.13041269  1
  H  H1  4  0.06036708  0.61913879  -0.04544401  1
  H  H2  4  0.06109088  0.66052143  0.54109910  1
  H  H3  4  0.16180670  0.24535517  0.79009376  1
  H  H4  4  0.27855713  0.48080422  0.32127431  1
  H  H5  4  0.40565894  0.43310976  0.97012982  1
  H  H6  4  0.41408319  0.49495627  0.48982076  1
  H  H7  4  0.47924644  0.71185320  1.06940704  1
  C  C8  4  0.05535345  0.69843330  0.07241970  1
  C  C9  4  0.12662450  0.63885535  0.19188315  1
  C  C10  4  0.26129814  0.73468699  0.81402635  1
  C  C11  4  0.26202134  0.39481039  0.79207735  1
  C  C12  4  0.29805968  0.56826489  0.85209804  1
  C  C13  4  0.30384174  0.60891642  0.36032784  1
  C  C14  4  0.37775004  0.56268062  0.94138451  1
  C  C15  4  0.38227814  0.61840135  0.45178705  1
  C  C16  4  0.41909159  0.71803826  0.99409643  1
  O  O17  4  0.13007594  0.49334494  0.26036112  1
  O  O18  4  0.17619023  0.36816985  0.82581420  1
  O  O19  4  0.18550880  0.72784213  0.71402485  1
  O  O20  4  0.30822977  0.28365009  0.72250923  1
