###############################################################################################
#
# CIF file generated by modified CIFWriter class 
# in pymatgen (v2025.03.10) https://pymatgen.org/
#
###############################################################################################
data_PBE+MBD_tight_e7001163aa38594
_symmetry_space_group_name_H-M   P222
_cell_length_a   8.50789466
_cell_length_b   13.39021104
_cell_length_c   9.86246331
_cell_angle_alpha   90.00000000
_cell_angle_beta   90.00000000
_cell_angle_gamma   90.00000000
_symmetry_Int_Tables_number   16
_chemical_formula_moiety   'C9 H8 O4'
_chemical_formula_sum   'H32 C36 O16'
_cell_volume   1123.55652516
_cell_formula_units_Z   4
loop_
 _symmetry_equiv_pos_site_id
 _symmetry_equiv_pos_as_xyz
  1  'x, y, z'
  2  '-x, y, -z'
  3  'x, -y, -z'
  4  '-x, -y, z'
loop_
 _atom_site_type_symbol
 _atom_site_label
 _atom_site_symmetry_multiplicity
 _atom_site_fract_x
 _atom_site_fract_y
 _atom_site_fract_z
 _atom_site_occupancy
  H  H0  4  -0.00695346  0.29003133  0.61906632  1
  H  H1  4  0.08060087  0.38120747  0.14406622  1
  H  H2  4  0.12871446  0.14107429  0.71686769  1
  H  H3  4  0.13297818  0.45479699  0.61684173  1
  H  H4  4  0.15989571  0.27278892  0.06457148  1
  H  H5  4  0.22840792  0.39163204  0.01343064  1
  H  H6  4  0.39298314  0.47050149  0.72470000  1
  H  H7  4  0.39597915  0.05627474  0.15121260  1
  C  C8  4  0.11074908  0.29684000  0.66140891  1
  C  C9  4  0.18512353  0.21408472  0.71710319  1
  C  C10  4  0.18711611  0.34848891  0.10092623  1
  C  C11  4  0.18750366  0.38896861  0.66178521  1
  C  C12  4  0.31240242  0.34091738  0.20763002  1
  C  C13  4  0.33498130  0.39830055  0.72148751  1
  C  C14  4  0.33588217  0.22115692  0.77452219  1
  C  C15  4  0.40819802  0.31542120  0.77851806  1
  C  C16  4  0.40932180  0.12679330  0.82232655  1
  O  O17  4  0.29435169  0.34403501  0.32919067  1
  O  O18  4  0.32754338  0.05171269  0.84403662  1
  O  O19  4  0.43604427  0.12782908  0.16677077  1
  O  O20  4  0.45584069  0.32932140  0.14558956  1
