###############################################################################################
#
# CIF file generated by modified CIFWriter class 
# in pymatgen (v2025.03.10) https://pymatgen.org/
#
###############################################################################################
data_PBE+MBD_tight_e87d1c7e7c421c7
_symmetry_space_group_name_H-M   P2_1/m
_cell_length_a   11.93423970
_cell_length_b   19.74011077
_cell_length_c   4.77499295
_cell_angle_alpha   90.00000000
_cell_angle_beta   103.72196310
_cell_angle_gamma   90.00000000
_symmetry_Int_Tables_number   11
_chemical_formula_moiety   'C9 H8 O4'
_chemical_formula_sum   'H32 C36 O16'
_cell_volume   1092.80134831
_cell_formula_units_Z   4
loop_
 _symmetry_equiv_pos_site_id
 _symmetry_equiv_pos_as_xyz
  1  'x, y, z'
  2  '-x, -y, -z'
  3  '-x, y+1/2, -z'
  4  'x, -y+1/2, z'
loop_
 _atom_site_type_symbol
 _atom_site_label
 _atom_site_symmetry_multiplicity
 _atom_site_fract_x
 _atom_site_fract_y
 _atom_site_fract_z
 _atom_site_occupancy
  H  H0  4  -0.00846890  0.85866802  0.03791375  1
  H  H1  4  0.07112804  0.96510857  -0.11323286  1
  H  H2  4  0.09274968  0.69804494  0.49696372  1
  H  H3  4  0.25807507  0.36045391  -0.13016246  1
  H  H4  4  0.26429214  0.30760608  0.18001498  1
  H  H5  4  0.27381336  0.64779588  0.79316321  1
  H  H6  4  0.38008407  0.36476691  0.16502684  1
  H  H7  4  0.47397972  1.04243212  0.83934110  1
  C  C8  4  0.06989898  0.61976440  0.17291027  1
  C  C9  4  0.11340576  0.55973682  0.08766626  1
  C  C10  4  0.12724679  0.84830226  0.42704308  1
  C  C11  4  0.21294745  0.96878138  0.25859859  1
  C  C12  4  0.22770218  1.08859446  0.23794936  1
  C  C13  4  0.22787116  0.62375451  0.59376626  1
  C  C14  4  0.27242906  0.56262905  0.51532663  1
  C  C15  4  0.28626218  0.35716985  0.10595530  1
  C  C16  4  0.37720082  0.53554643  0.71669068  1
  O  O17  4  0.16215319  0.40343944  0.39420057  1
  O  O18  4  0.25679936  1.02603057  0.15165637  1
  O  O19  4  0.40630914  0.47292801  0.67269082  1
  O  O20  4  0.43139909  0.57134622  0.91872028  1
