###############################################################################################
#
# CIF file generated by modified CIFWriter class 
# in pymatgen (v2025.03.10) https://pymatgen.org/
#
###############################################################################################
data_PBE+MBD_tight_e8d9251a8225d8f
_symmetry_space_group_name_H-M   Pnc2
_cell_length_a   5.45716774
_cell_length_b   17.51783826
_cell_length_c   9.89423712
_cell_angle_alpha   90.00000000
_cell_angle_beta   90.00000000
_cell_angle_gamma   90.00000000
_symmetry_Int_Tables_number   30
_chemical_formula_moiety   'C9 H8 O4'
_chemical_formula_sum   'H32 C36 O16'
_cell_volume   945.86712097
_cell_formula_units_Z   4
loop_
 _symmetry_equiv_pos_site_id
 _symmetry_equiv_pos_as_xyz
  1  'x, y, z'
  2  '-x, -y, z'
  3  '-x, y+1/2, z+1/2'
  4  'x, -y+1/2, z+1/2'
loop_
 _atom_site_type_symbol
 _atom_site_label
 _atom_site_symmetry_multiplicity
 _atom_site_fract_x
 _atom_site_fract_y
 _atom_site_fract_z
 _atom_site_occupancy
  H  H0  4  -0.21841706  0.71601716  0.36300014  1
  H  H1  4  -0.20660925  0.65264737  -0.04168995  1
  H  H2  4  0.10210463  0.10907621  0.21120773  1
  H  H3  4  0.14008620  0.61454585  0.10800834  1
  H  H4  4  0.21210054  0.50221618  0.37485496  1
  H  H5  4  0.23656276  0.03447422  0.11548336  1
  H  H6  4  0.27061081  0.03524233  0.29514673  1
  H  H7  4  0.47049455  0.70847175  0.16044036  1
  C  C8  4  -0.06802183  0.73400321  0.42776919  1
  C  C9  4  -0.06092639  0.69300286  -0.01843730  1
  C  C10  4  0.07876314  0.60234407  0.39966066  1
  C  C11  4  0.11549825  0.67994975  0.45623502  1
  C  C12  4  0.13281853  0.67187580  0.06565327  1
  C  C13  4  0.26148887  0.07087892  0.20459434  1
  C  C14  4  0.30929234  0.70258680  0.54129248  1
  C  C15  4  0.31734134  0.72402731  0.09538366  1
  C  C16  4  0.49296456  0.11594095  0.19040608  1
  O  O17  4  -0.11719693  0.58409732  0.34479196  1
  O  O18  4  0.26411020  0.55376363  0.41282468  1
  O  O19  4  0.34042153  0.61940135  0.77118210  1
  O  O20  4  0.49500618  0.15424981  0.06918556  1
