###############################################################################################
#
# CIF file generated by modified CIFWriter class 
# in pymatgen (v2025.03.10) https://pymatgen.org/
#
###############################################################################################
data_PBE+MBD_tight_e96ca3eadf16743
_symmetry_space_group_name_H-M   P2_1/c
_cell_length_a   14.64524133
_cell_length_b   8.10093468
_cell_length_c   7.13846261
_cell_angle_alpha   90.00000000
_cell_angle_beta   78.92703495
_cell_angle_gamma   90.00000000
_symmetry_Int_Tables_number   14
_chemical_formula_moiety   'C9 H8 O4'
_chemical_formula_sum   'H32 C36 O16'
_cell_volume   831.14167227
_cell_formula_units_Z   4
loop_
 _symmetry_equiv_pos_site_id
 _symmetry_equiv_pos_as_xyz
  1  'x, y, z'
  2  '-x, -y, -z'
  3  '-x, y+1/2, -z+1/2'
  4  'x, -y+1/2, z+1/2'
loop_
 _atom_site_type_symbol
 _atom_site_label
 _atom_site_symmetry_multiplicity
 _atom_site_fract_x
 _atom_site_fract_y
 _atom_site_fract_z
 _atom_site_occupancy
  H  H0  4  -0.03558662  0.91295509  0.64662166  1
  H  H1  4  -0.02695128  1.03275670  0.84815427  1
  H  H2  4  -0.01626642  0.81496656  0.86211088  1
  H  H3  4  0.18202375  1.29122401  0.95109751  1
  H  H4  4  0.24026200  0.91199346  0.22736495  1
  H  H5  4  0.41014697  0.54653585  0.64726160  1
  H  H6  4  0.44893291  1.07216037  0.68949685  1
  H  H7  4  0.48283610  0.29281072  0.87662579  1
  C  C8  4  0.00013465  0.57830583  0.26786660  1
  C  C9  4  0.10246445  0.55849285  0.19675188  1
  C  C10  4  0.25019866  0.64916613  0.25489522  1
  C  C11  4  0.27777967  0.33779055  0.30058523  1
  C  C12  4  0.28697627  0.69338479  0.71810796  1
  C  C13  4  0.30777040  0.98996480  0.74913007  1
  C  C14  4  0.38293709  0.67130806  0.67245252  1
  C  C15  4  0.40413614  0.96431363  0.69710595  1
  C  C16  4  0.44186776  0.80778301  0.65981894  1
  O  O17  4  0.13708916  1.02280347  0.55723386  1
  O  O18  4  0.15242552  0.85647838  0.80572443  1
  O  O19  4  0.19291142  0.32610194  0.41390891  1
  O  O20  4  0.32654355  0.21746624  0.25027292  1
