###############################################################################################
#
# CIF file generated by modified CIFWriter class 
# in pymatgen (v2025.03.10) https://pymatgen.org/
#
###############################################################################################
data_PBE+MBD_tight_ea5a09273685399
_symmetry_space_group_name_H-M   Pba2
_cell_length_a   8.28080397
_cell_length_b   26.34700765
_cell_length_c   3.99397488
_cell_angle_alpha   90.00000000
_cell_angle_beta   90.00000000
_cell_angle_gamma   90.00000000
_symmetry_Int_Tables_number   32
_chemical_formula_moiety   'C9 H8 O4'
_chemical_formula_sum   'H32 C36 O16'
_cell_volume   871.38309496
_cell_formula_units_Z   4
loop_
 _symmetry_equiv_pos_site_id
 _symmetry_equiv_pos_as_xyz
  1  'x, y, z'
  2  '-x, -y, z'
  3  '-x+1/2, y+1/2, z'
  4  'x+1/2, -y+1/2, z'
loop_
 _atom_site_type_symbol
 _atom_site_label
 _atom_site_symmetry_multiplicity
 _atom_site_fract_x
 _atom_site_fract_y
 _atom_site_fract_z
 _atom_site_occupancy
  H  H0  4  -0.18696547  0.09277466  0.95893587  1
  H  H1  4  -0.16612130  0.17919658  0.69381889  1
  H  H2  4  -0.16301048  0.68981092  0.25443383  1
  H  H3  4  -0.06850090  0.72671708  -0.05974038  1
  H  H4  4  -0.06370640  0.53858544  0.67141875  1
  H  H5  4  -0.05900873  0.65816357  -0.07550902  1
  H  H6  4  0.04914778  0.03479426  0.93063295  1
  H  H7  4  0.07885883  0.20413054  0.39645821  1
  C  C8  4  -0.07705730  0.10477819  0.83200251  1
  C  C9  4  -0.06556835  0.15261937  0.68505655  1
  C  C10  4  -0.05795855  0.69170366  0.08641187  1
  C  C11  4  0.05459393  0.07223498  0.81711807  1
  C  C12  4  0.07491107  0.16761848  0.52099305  1
  C  C13  4  0.09192535  0.69349656  0.29603813  1
  C  C14  4  0.16632962  0.54931016  0.66785024  1
  C  C15  4  0.19947035  0.08673977  0.66203937  1
  C  C16  4  0.20719806  0.13498379  0.51088946  1
  O  O17  4  0.01845284  0.56790580  0.65805538  1
  O  O18  4  0.14676715  0.73082780  0.43242392  1
  O  O19  4  0.15560447  0.64562829  0.32446715  1
  O  O20  4  0.19588955  0.50313564  0.68997975  1
