###############################################################################################
#
# CIF file generated by modified CIFWriter class 
# in pymatgen (v2025.03.10) https://pymatgen.org/
#
###############################################################################################
data_PBE+MBD_tight_ec18537c0bdb8c2
_symmetry_space_group_name_H-M   P2/c
_cell_length_a   14.44833998
_cell_length_b   3.88908541
_cell_length_c   16.38956480
_cell_angle_alpha   90.00000000
_cell_angle_beta   110.42142846
_cell_angle_gamma   90.00000000
_symmetry_Int_Tables_number   13
_chemical_formula_moiety   'C9 H8 O4'
_chemical_formula_sum   'H32 C36 O16'
_cell_volume   863.06337335
_cell_formula_units_Z   4
loop_
 _symmetry_equiv_pos_site_id
 _symmetry_equiv_pos_as_xyz
  1  'x, y, z'
  2  '-x, -y, -z'
  3  '-x, y, -z+1/2'
  4  'x, -y, z+1/2'
loop_
 _atom_site_type_symbol
 _atom_site_label
 _atom_site_symmetry_multiplicity
 _atom_site_fract_x
 _atom_site_fract_y
 _atom_site_fract_z
 _atom_site_occupancy
  H  H0  4  -0.02007490  0.00714110  0.62188373  1
  H  H1  4  0.05103508  0.71620422  0.01971126  1
  H  H2  4  0.09066380  1.13019377  0.27400970  1
  H  H3  4  0.22709593  0.55535530  0.07045766  1
  H  H4  4  0.34014409  0.85573259  0.55074597  1
  H  H5  4  0.35046542  -0.24852265  0.99831958  1
  H  H6  4  0.41820718  0.11490502  0.98654827  1
  H  H7  4  0.49013638  0.58449232  0.31569991  1
  C  C8  4  0.05796593  0.92437381  0.14395800  1
  C  C9  4  0.09745527  0.76774741  0.08676386  1
  C  C10  4  0.11840338  0.00507361  0.72918445  1
  C  C11  4  0.19655360  0.67836819  0.11508912  1
  C  C12  4  0.21765185  0.90168140  0.25770018  1
  C  C13  4  0.25876463  0.26038651  0.70133714  1
  C  C14  4  0.26475442  0.86043592  0.41256889  1
  C  C15  4  0.34810428  0.03213838  0.99245387  1
  C  C16  4  0.36378692  0.63585667  0.22540320  1
  O  O17  4  0.19570837  0.67699599  0.40944719  1
  O  O18  4  0.27927081  0.00542514  0.84040071  1
  O  O19  4  0.39698336  0.54091609  0.16837997  1
  O  O20  4  0.41891885  0.64929772  0.30859708  1
