###############################################################################################
#
# CIF file generated by modified CIFWriter class 
# in pymatgen (v2025.03.10) https://pymatgen.org/
#
###############################################################################################
data_PBE+MBD_tight_fd1fb0a49ccafc5
_symmetry_space_group_name_H-M   P2_1/c
_cell_length_a   11.92075432
_cell_length_b   4.73356005
_cell_length_c   15.30278980
_cell_angle_alpha   90.00000000
_cell_angle_beta   85.51409920
_cell_angle_gamma   90.00000000
_symmetry_Int_Tables_number   14
_chemical_formula_moiety   'C9 H8 O4'
_chemical_formula_sum   'H32 C36 O16'
_cell_volume   860.85456353
_cell_formula_units_Z   4
loop_
 _symmetry_equiv_pos_site_id
 _symmetry_equiv_pos_as_xyz
  1  'x, y, z'
  2  '-x, -y, -z'
  3  '-x, y+1/2, -z+1/2'
  4  'x, -y+1/2, z+1/2'
loop_
 _atom_site_type_symbol
 _atom_site_label
 _atom_site_symmetry_multiplicity
 _atom_site_fract_x
 _atom_site_fract_y
 _atom_site_fract_z
 _atom_site_occupancy
  H  H0  4  -0.02127782  1.04433948  0.84451308  1
  H  H1  4  0.01866822  0.79017941  0.46342047  1
  H  H2  4  0.11684281  1.09391693  0.71338780  1
  H  H3  4  0.19267644  1.08680029  0.44826695  1
  H  H4  4  0.36884761  0.86961284  -0.01796173  1
  H  H5  4  0.37000649  0.98254972  0.52614460  1
  H  H6  4  0.46319214  0.77445913  0.06344236  1
  H  H7  4  0.49240002  1.19250650  0.26059368  1
  C  C8  4  0.05549427  0.91847551  0.83916001  1
  C  C9  4  0.07758088  0.77133422  0.40559180  1
  C  C10  4  0.13109882  0.55542639  0.26553892  1
  C  C11  4  0.17457027  0.93462672  0.39777643  1
  C  C12  4  0.22871086  0.78267465  0.75848025  1
  C  C13  4  0.25269578  0.91035538  0.32432514  1
  C  C14  4  0.29227705  0.67209507  0.61154872  1
  C  C15  4  0.35314461  0.40487867  0.82315666  1
  C  C16  4  0.37886158  0.75666858  0.54068077  1
  O  O17  4  0.22051112  0.49196402  0.60813156  1
  O  O18  4  0.30424843  0.66838645  0.18593573  1
  O  O19  4  0.36338919  1.28583834  0.37568296  1
  O  O20  4  0.43561899  0.46066350  0.75895175  1
