###############################################################################################
#
# CIF file generated by modified CIFWriter class 
# in pymatgen (v2025.03.10) https://pymatgen.org/
#
###############################################################################################
data_PBE+MBD_tight_fe404f0c22ab5d7
_symmetry_space_group_name_H-M   P-4
_cell_length_a   7.93492855
_cell_length_b   7.93492855
_cell_length_c   15.09091720
_cell_angle_alpha   90.00000000
_cell_angle_beta   90.00000000
_cell_angle_gamma   90.00000000
_symmetry_Int_Tables_number   81
_chemical_formula_moiety   'C9 H8 O4'
_chemical_formula_sum   'H32 C36 O16'
_cell_volume   950.17079441
_cell_formula_units_Z   4
loop_
 _symmetry_equiv_pos_site_id
 _symmetry_equiv_pos_as_xyz
  1  'x, y, z'
  2  'y, -x, -z'
  3  '-x, -y, z'
  4  '-y, x, -z'
loop_
 _atom_site_type_symbol
 _atom_site_label
 _atom_site_symmetry_multiplicity
 _atom_site_fract_x
 _atom_site_fract_y
 _atom_site_fract_z
 _atom_site_occupancy
  H  H0  4  -0.35398706  0.64494716  0.79778561  1
  H  H1  4  -0.21521607  0.65442408  0.94598949  1
  H  H2  4  -0.19486721  0.73494963  0.66329954  1
  H  H3  4  0.06060840  0.36198050  0.43971865  1
  H  H4  4  0.08887199  0.72755361  0.95551176  1
  H  H5  4  0.12366861  0.19464972  0.50935381  1
  H  H6  4  0.13555797  0.50536935  0.22314578  1
  H  H7  4  0.25145175  0.38055456  0.50263058  1
  C  C8  4  -0.22412975  0.68848021  0.80365716  1
  C  C9  4  -0.14613473  0.69000579  0.88650725  1
  C  C10  4  -0.13525334  0.73612167  0.72814331  1
  C  C11  4  0.02347293  0.73164661  0.89209280  1
  C  C12  4  0.03382900  0.78030721  0.73443362  1
  C  C13  4  0.11786152  0.77518275  0.81659766  1
  C  C14  4  0.17104796  0.29406428  0.46522445  1
  C  C15  4  0.19793268  0.30076422  0.16899480  1
  C  C16  4  0.21786398  0.73409350  0.61087369  1
  O  O17  4  0.11106268  0.83831089  0.65708749  1
  O  O18  4  0.13722885  0.38630689  0.24060952  1
  O  O19  4  0.22859986  0.37353456  0.09971929  1
  O  O20  4  0.24279026  0.58818513  0.62985902  1
