###############################################################################################
#
# CIF file generated by modified CIFWriter class 
# in pymatgen (v2025.03.10) https://pymatgen.org/
#
###############################################################################################
data_PBE+MBD_tight_109f70e8c7df5f2
_symmetry_space_group_name_H-M   P4/n
_cell_length_a   12.26837163
_cell_length_b   12.26837163
_cell_length_c   6.68377301
_cell_angle_alpha   90.00000000
_cell_angle_beta   90.00000000
_cell_angle_gamma   90.00000000
_symmetry_Int_Tables_number   85
_chemical_formula_moiety   'C6 H6 O'
_chemical_formula_sum   'H48 C48 O8'
_cell_volume   1005.99434327
_cell_formula_units_Z   8
loop_
 _symmetry_equiv_pos_site_id
 _symmetry_equiv_pos_as_xyz
  1  'x, y, z'
  2  '-y+1/2, x+1/2, z'
  3  '-x, -y, z'
  4  'y+1/2, -x+1/2, z'
  5  '-x+1/2, -y+1/2, -z'
  6  'y, -x, -z'
  7  'x+1/2, y+1/2, -z'
  8  '-y, x, -z'
loop_
 _atom_site_type_symbol
 _atom_site_label
 _atom_site_symmetry_multiplicity
 _atom_site_fract_x
 _atom_site_fract_y
 _atom_site_fract_z
 _atom_site_occupancy
  H  H0  8  0.00175755  0.17541339  1.11503568  1
  H  H1  8  0.04667685  0.37284645  1.12453449  1
  H  H2  8  0.07611026  0.65791287  0.57128888  1
  H  H3  8  0.08941782  0.09421881  0.55630009  1
  H  H4  8  0.14337751  0.14344373  1.13568908  1
  H  H5  8  0.15998527  0.68824353  1.14245804  1
  C  C6  8  0.08351487  0.19546207  1.05981671  1
  C  C7  8  0.09423545  0.20237109  0.83344170  1
  C  C8  8  0.09731341  0.16976133  0.63902121  1
  C  C9  8  0.11184426  0.32102617  1.06478285  1
  C  C10  8  0.11919209  0.31559950  0.83810761  1
  C  C11  8  0.13658726  0.34875343  0.64679984  1
  O  O12  8  0.12264537  0.25955874  0.52270770  1
