###############################################################################################
#
# CIF file generated by modified CIFWriter class 
# in pymatgen (v2025.03.10) https://pymatgen.org/
#
###############################################################################################
data_PBE+MBD_tight_1935b788ef02376
_symmetry_space_group_name_H-M   C222_1
_cell_length_a   9.31275797
_cell_length_b   9.90985550
_cell_length_c   10.39276333
_cell_angle_alpha   90.00000000
_cell_angle_beta   90.00000000
_cell_angle_gamma   90.00000000
_symmetry_Int_Tables_number   20
_chemical_formula_moiety   'C6 H6 O'
_chemical_formula_sum   'H48 C48 O8'
_cell_volume   959.12823468
_cell_formula_units_Z   8
loop_
 _symmetry_equiv_pos_site_id
 _symmetry_equiv_pos_as_xyz
  1  'x, y, z'
  2  '-x, -y, z+1/2'
  3  'x, -y, -z'
  4  '-x, y, -z+1/2'
  5  'x+1/2, y+1/2, z'
  6  '-x+1/2, -y+1/2, z+1/2'
  7  'x+1/2, -y+1/2, -z'
  8  '-x+1/2, y+1/2, -z+1/2'
loop_
 _atom_site_type_symbol
 _atom_site_label
 _atom_site_symmetry_multiplicity
 _atom_site_fract_x
 _atom_site_fract_y
 _atom_site_fract_z
 _atom_site_occupancy
  H  H0  8  -0.07741386  0.36658193  0.54045610  1
  H  H1  8  0.09952098  0.02356537  0.37982946  1
  H  H2  8  0.11303091  0.19364653  0.78329867  1
  H  H3  8  0.14788930  0.48337787  0.74870240  1
  H  H4  8  0.22170877  -0.01430378  0.87719607  1
  H  H5  8  0.24123924  0.19086281  0.65541346  1
  C  C6  8  0.00112278  0.31912903  0.47821093  1
  C  C7  8  0.09778811  0.13211901  0.39090727  1
  C  C8  8  0.10750102  0.35847182  0.39710803  1
  C  C9  8  0.16861208  0.24036640  0.34203512  1
  C  C10  8  0.20420862  0.45190393  0.32064868  1
  C  C11  8  0.22693830  0.17966697  0.75967642  1
  O  O12  8  -0.00574471  0.17939599  0.47541480  1
