###############################################################################################
#
# CIF file generated by modified CIFWriter class 
# in pymatgen (v2025.03.10) https://pymatgen.org/
#
###############################################################################################
data_PBE+MBD_tight_1d2a69a643c2c1
_symmetry_space_group_name_H-M   P-42c
_cell_length_a   7.15099953
_cell_length_b   7.15099953
_cell_length_c   20.39647948
_cell_angle_alpha   90.00000000
_cell_angle_beta   90.00000000
_cell_angle_gamma   90.00000000
_symmetry_Int_Tables_number   112
_chemical_formula_moiety   'C6 H6 O'
_chemical_formula_sum   'H48 C48 O8'
_cell_volume   1043.01057587
_cell_formula_units_Z   8
loop_
 _symmetry_equiv_pos_site_id
 _symmetry_equiv_pos_as_xyz
  1  'x, y, z'
  2  'y, -x, -z'
  3  '-x, -y, z'
  4  '-y, x, -z'
  5  'x, -y, -z+1/2'
  6  'y, x, z+1/2'
  7  '-x, y, -z+1/2'
  8  '-y, -x, z+1/2'
loop_
 _atom_site_type_symbol
 _atom_site_label
 _atom_site_symmetry_multiplicity
 _atom_site_fract_x
 _atom_site_fract_y
 _atom_site_fract_z
 _atom_site_occupancy
  H  H0  8  -0.15381562  0.37383069  0.16719642  1
  H  H1  8  -0.08526376  0.37575097  0.04823509  1
  H  H2  8  -0.08470380  0.12691968  0.04744451  1
  H  H3  8  0.12341439  -0.15325941  0.66671129  1
  H  H4  8  0.25053479  0.34037830  0.74452211  1
  H  H5  8  0.25735236  0.46136321  0.54634001  1
  C  C6  8  -0.07967162  0.24905745  0.14984576  1
  C  C7  8  -0.03527762  0.25080835  0.07396520  1
  C  C8  8  0.13035948  0.24991727  0.16094931  1
  C  C9  8  0.17108678  0.25176872  0.09262440  1
  C  C10  8  0.25140075  0.29549510  0.69384624  1
  C  C11  8  0.25488210  0.36047489  0.58599291  1
  O  O12  8  0.25446314  0.43838801  0.64805551  1
