###############################################################################################
#
# CIF file generated by modified CIFWriter class 
# in pymatgen (v2025.03.10) https://pymatgen.org/
#
###############################################################################################
data_PBE+MBD_tight_1e526f6fd97eba5
_symmetry_space_group_name_H-M   Pnna
_cell_length_a   11.48149025
_cell_length_b   9.99641713
_cell_length_c   9.16924544
_cell_angle_alpha   90.00000000
_cell_angle_beta   90.00000000
_cell_angle_gamma   90.00000000
_symmetry_Int_Tables_number   52
_chemical_formula_moiety   'C6 H6 O'
_chemical_formula_sum   'H48 C48 O8'
_cell_volume   1052.38882877
_cell_formula_units_Z   8
loop_
 _symmetry_equiv_pos_site_id
 _symmetry_equiv_pos_as_xyz
  1  'x, y, z'
  2  '-x, -y, -z'
  3  '-x+1/2, -y, z'
  4  'x+1/2, y, -z'
  5  'x, -y+1/2, -z+1/2'
  6  '-x, y+1/2, z+1/2'
  7  '-x+1/2, y+1/2, -z+1/2'
  8  'x+1/2, -y+1/2, z+1/2'
loop_
 _atom_site_type_symbol
 _atom_site_label
 _atom_site_symmetry_multiplicity
 _atom_site_fract_x
 _atom_site_fract_y
 _atom_site_fract_z
 _atom_site_occupancy
  H  H0  8  -0.07632906  0.51502833  0.10851093  1
  H  H1  8  -0.06795566  0.63293543  0.25337554  1
  H  H2  8  -0.04350670  0.63694171  0.60243836  1
  H  H3  8  0.13074007  0.45256245  0.15094143  1
  H  H4  8  0.13940840  0.57281934  0.29515664  1
  H  H5  8  0.20080740  0.24472673  -0.03578968  1
  C  C6  8  -0.02301954  0.59457550  0.15656381  1
  C  C7  8  0.02094444  0.69876837  0.54857359  1
  C  C8  8  0.02216720  0.69990485  0.05059359  1
  C  C9  8  0.10856814  0.55508542  0.18355426  1
  C  C10  8  0.14048835  0.66362099  0.07441185  1
  C  C11  8  0.20759674  0.74344562  -0.01139382  1
  O  O12  8  0.13482532  0.67098027  0.58705952  1
