###############################################################################################
#
# CIF file generated by modified CIFWriter class 
# in pymatgen (v2025.03.10) https://pymatgen.org/
#
###############################################################################################
data_PBE+MBD_tight_1eede9a9bfacdac
_symmetry_space_group_name_H-M   P4_2/n
_cell_length_a   14.06905545
_cell_length_b   14.06905545
_cell_length_c   5.19457431
_cell_angle_alpha   90.00000000
_cell_angle_beta   90.00000000
_cell_angle_gamma   90.00000000
_symmetry_Int_Tables_number   86
_chemical_formula_moiety   'C6 H6 O'
_chemical_formula_sum   'H48 C48 O8'
_cell_volume   1028.20532002
_cell_formula_units_Z   8
loop_
 _symmetry_equiv_pos_site_id
 _symmetry_equiv_pos_as_xyz
  1  'x, y, z'
  2  '-y+1/2, x+1/2, z+1/2'
  3  '-x, -y, z'
  4  'y+1/2, -x+1/2, z+1/2'
  5  '-x+1/2, -y+1/2, -z+1/2'
  6  'y, -x, -z'
  7  'x+1/2, y+1/2, -z+1/2'
  8  '-y, x, -z'
loop_
 _atom_site_type_symbol
 _atom_site_label
 _atom_site_symmetry_multiplicity
 _atom_site_fract_x
 _atom_site_fract_y
 _atom_site_fract_z
 _atom_site_occupancy
  H  H0  8  -0.06967933  0.11245886  1.21823298  1
  H  H1  8  -0.04048751  0.35773259  0.83781920  1
  H  H2  8  -0.00471660  0.26891323  0.61081010  1
  H  H3  8  0.10285349  0.63093203  0.41405048  1
  H  H4  8  0.16476299  0.30767721  0.68972332  1
  H  H5  8  0.17776526  0.78831022  -0.35808565  1
  C  C6  8  -0.00739197  0.15534451  1.17957449  1
  C  C7  8  0.00937931  0.29908877  0.80175969  1
  C  C8  8  0.01798113  0.22681714  1.01729914  1
  C  C9  8  0.11498797  0.24928170  1.06439663  1
  C  C10  8  0.11750480  0.32389032  0.85205513  1
  C  C11  8  0.14609222  0.19070886  1.25508358  1
  O  O12  8  0.07121224  0.13315346  1.32779601  1
