###############################################################################################
#
# CIF file generated by modified CIFWriter class 
# in pymatgen (v2025.03.10) https://pymatgen.org/
#
###############################################################################################
data_PBE+MBD_tight_21cd0972f927438
_symmetry_space_group_name_H-M   Pbcn
_cell_length_a   10.95467942
_cell_length_b   9.38561619
_cell_length_c   10.07212992
_cell_angle_alpha   90.00000000
_cell_angle_beta   90.00000000
_cell_angle_gamma   90.00000000
_symmetry_Int_Tables_number   60
_chemical_formula_moiety   'C6 H6 O'
_chemical_formula_sum   'H48 C48 O8'
_cell_volume   1035.58030607
_cell_formula_units_Z   8
loop_
 _symmetry_equiv_pos_site_id
 _symmetry_equiv_pos_as_xyz
  1  'x, y, z'
  2  '-x, -y, -z'
  3  '-x+1/2, -y+1/2, z+1/2'
  4  'x+1/2, y+1/2, -z+1/2'
  5  'x+1/2, -y+1/2, -z'
  6  '-x+1/2, y+1/2, z'
  7  '-x, y, -z+1/2'
  8  'x, -y, z+1/2'
loop_
 _atom_site_type_symbol
 _atom_site_label
 _atom_site_symmetry_multiplicity
 _atom_site_fract_x
 _atom_site_fract_y
 _atom_site_fract_z
 _atom_site_occupancy
  H  H0  8  -0.04846102  0.36455045  0.12868733  1
  H  H1  8  0.08399992  -0.02116293  0.20122429  1
  H  H2  8  0.11932071  0.26538146  -0.22715120  1
  H  H3  8  0.18535142  -0.08142506  -0.01200359  1
  H  H4  8  0.18908918  0.46952202  0.53070735  1
  H  H5  8  0.20850891  0.09094767  0.24568644  1
  C  C6  8  0.01295642  0.29842387  0.07116659  1
  C  C7  8  0.08609105  0.18371221  0.09211529  1
  C  C8  8  0.10489083  0.24467575  -0.12254368  1
  C  C9  8  0.14407469  0.14954883  -0.03025670  1
  C  C10  8  0.14667165  0.06086905  0.16473482  1
  C  C11  8  0.21111052  0.02271583  0.02887589  1
  O  O12  8  0.02382562  0.33716906  -0.06119228  1
