###############################################################################################
#
# CIF file generated by modified CIFWriter class 
# in pymatgen (v2025.03.10) https://pymatgen.org/
#
###############################################################################################
data_PBE+MBD_tight_231741ced02b12c
_symmetry_space_group_name_H-M   P4_122
_cell_length_a   6.72567798
_cell_length_b   6.72567798
_cell_length_c   26.99223065
_cell_angle_alpha   90.00000000
_cell_angle_beta   90.00000000
_cell_angle_gamma   90.00000000
_symmetry_Int_Tables_number   91
_chemical_formula_moiety   'C6 H6 O'
_chemical_formula_sum   'H48 C48 O8'
_cell_volume   1220.98665014
_cell_formula_units_Z   8
loop_
 _symmetry_equiv_pos_site_id
 _symmetry_equiv_pos_as_xyz
  1  'x, y, z'
  2  '-y, x, z+1/4'
  3  '-x, -y, z+1/2'
  4  'y, -x, z+3/4'
  5  'x, -y, -z+1/2'
  6  '-y, -x, -z+1/4'
  7  '-x, y, -z'
  8  'y, x, -z+3/4'
loop_
 _atom_site_type_symbol
 _atom_site_label
 _atom_site_symmetry_multiplicity
 _atom_site_fract_x
 _atom_site_fract_y
 _atom_site_fract_z
 _atom_site_occupancy
  H  H0  8  -0.25131593  0.48390062  0.46262692  1
  H  H1  8  -0.23743783  0.48843982  0.39665800  1
  H  H2  8  -0.10645638  0.85691274  0.03688056  1
  H  H3  8  -0.08825644  0.85166479  0.10287320  1
  H  H4  8  0.17758818  0.22124143  0.68958855  1
  H  H5  8  0.25936077  0.46789907  0.31023364  1
  C  C6  8  -0.15671764  0.45025888  0.43067858  1
  C  C7  8  -0.06292365  0.23417365  0.43113369  1
  C  C8  8  0.05406154  0.47114773  0.06551207  1
  C  C9  8  0.13872644  0.33525863  0.43518571  1
  C  C10  8  0.20502320  0.33777103  0.06201506  1
  C  C11  8  0.33908129  0.35591097  0.43889641  1
  O  O12  8  0.38170851  0.44291128  0.05938632  1
