###############################################################################################
#
# CIF file generated by modified CIFWriter class 
# in pymatgen (v2025.03.10) https://pymatgen.org/
#
###############################################################################################
data_PBE+MBD_tight_2503cf84161d766
_symmetry_space_group_name_H-M   Aea2
_cell_length_a   17.07633659
_cell_length_b   7.22501311
_cell_length_c   8.08289165
_cell_angle_alpha   90.00000000
_cell_angle_beta   90.00000000
_cell_angle_gamma   90.00000000
_symmetry_Int_Tables_number   41
_chemical_formula_moiety   'C6 H6 O'
_chemical_formula_sum   'H48 C48 O8'
_cell_volume   997.24094875
_cell_formula_units_Z   8
loop_
 _symmetry_equiv_pos_site_id
 _symmetry_equiv_pos_as_xyz
  1  'x, y, z'
  2  '-x, -y, z'
  3  '-x+1/2, y+1/2, z'
  4  'x+1/2, -y+1/2, z'
  5  'x, y+1/2, z+1/2'
  6  '-x, -y+1/2, z+1/2'
  7  '-x+1/2, y, z+1/2'
  8  'x+1/2, -y, z+1/2'
loop_
 _atom_site_type_symbol
 _atom_site_label
 _atom_site_symmetry_multiplicity
 _atom_site_fract_x
 _atom_site_fract_y
 _atom_site_fract_z
 _atom_site_occupancy
  H  H0  8  -0.01182055  0.31473384  0.69709685  1
  H  H1  8  0.04797164  0.11550470  0.73202176  1
  H  H2  8  0.06442255  0.48377928  0.91653822  1
  H  H3  8  0.12598538  0.28655224  0.94196955  1
  H  H4  8  0.13685603  0.31894063  0.31472368  1
  H  H5  8  0.24261605  0.61967406  0.16749249  1
  C  C6  8  0.04856133  0.26617031  0.71471245  1
  C  C7  8  0.09692530  0.37545772  0.85065805  1
  C  C8  8  0.10703714  0.33978882  0.58900491  1
  C  C9  8  0.14321351  0.36676713  0.44105337  1
  C  C10  8  0.14929265  0.44113542  0.71064031  1
  C  C11  8  0.20970447  0.52841926  0.63346931  1
  O  O12  8  0.20624125  0.48332632  0.46738223  1
