###############################################################################################
#
# CIF file generated by modified CIFWriter class 
# in pymatgen (v2025.03.10) https://pymatgen.org/
#
###############################################################################################
data_PBE+MBD_tight_2a56766b88ee016
_symmetry_space_group_name_H-M   P4_12_12
_cell_length_a   8.75797073
_cell_length_b   8.75797073
_cell_length_c   13.91780891
_cell_angle_alpha   90.00000000
_cell_angle_beta   90.00000000
_cell_angle_gamma   90.00000000
_symmetry_Int_Tables_number   92
_chemical_formula_moiety   'C6 H6 O'
_chemical_formula_sum   'H48 C48 O8'
_cell_volume   1067.52449282
_cell_formula_units_Z   8
loop_
 _symmetry_equiv_pos_site_id
 _symmetry_equiv_pos_as_xyz
  1  'x, y, z'
  2  '-y+1/2, x+1/2, z+1/4'
  3  '-x, -y, z+1/2'
  4  'y+1/2, -x+1/2, z+3/4'
  5  'x+1/2, -y+1/2, -z+3/4'
  6  '-y, -x, -z+1/2'
  7  '-x+1/2, y+1/2, -z+1/4'
  8  'y, x, -z'
loop_
 _atom_site_type_symbol
 _atom_site_label
 _atom_site_symmetry_multiplicity
 _atom_site_fract_x
 _atom_site_fract_y
 _atom_site_fract_z
 _atom_site_occupancy
  H  H0  8  0.01753210  0.96223284  0.12776541  1
  H  H1  8  0.07512859  0.39503647  0.20105879  1
  H  H2  8  0.07689110  0.38643996  0.07297205  1
  H  H3  8  0.09626290  0.23385098  0.81531053  1
  H  H4  8  0.10220572  0.22698262  0.94379087  1
  H  H5  8  0.11671314  0.80404740  0.88163873  1
  C  C6  8  -0.04625983  0.58824670  0.13185680  1
  C  C7  8  -0.03647888  0.42595126  0.88497603  1
  C  C8  8  -0.01178219  0.84224884  0.12879518  1
  C  C9  8  0.06421372  0.70714844  0.13051758  1
  C  C10  8  0.09602616  0.30291419  0.88106604  1
  C  C11  8  0.15436275  0.68651610  0.88043547  1
  O  O12  8  -0.16680930  0.81099794  0.12867518  1
