###############################################################################################
#
# CIF file generated by modified CIFWriter class 
# in pymatgen (v2025.03.10) https://pymatgen.org/
#
###############################################################################################
data_PBE+MBD_tight_2b3c0057b0d856
_symmetry_space_group_name_H-M   P4_12_12
_cell_length_a   7.70400889
_cell_length_b   7.70400889
_cell_length_c   16.58811435
_cell_angle_alpha   90.00000000
_cell_angle_beta   90.00000000
_cell_angle_gamma   90.00000000
_symmetry_Int_Tables_number   92
_chemical_formula_moiety   'C6 H6 O'
_chemical_formula_sum   'H48 C48 O8'
_cell_volume   984.53366401
_cell_formula_units_Z   8
loop_
 _symmetry_equiv_pos_site_id
 _symmetry_equiv_pos_as_xyz
  1  'x, y, z'
  2  '-y+1/2, x+1/2, z+1/4'
  3  '-x, -y, z+1/2'
  4  'y+1/2, -x+1/2, z+3/4'
  5  'x+1/2, -y+1/2, -z+3/4'
  6  '-y, -x, -z+1/2'
  7  '-x+1/2, y+1/2, -z+1/4'
  8  'y, x, -z'
loop_
 _atom_site_type_symbol
 _atom_site_label
 _atom_site_symmetry_multiplicity
 _atom_site_fract_x
 _atom_site_fract_y
 _atom_site_fract_z
 _atom_site_occupancy
  H  H0  8  -0.01982760  0.73082934  0.45101116  1
  H  H1  8  -0.01748833  0.23258712  0.80907875  1
  H  H2  8  0.07014559  0.11342154  0.57924091  1
  H  H3  8  0.07022742  0.34465174  0.57810188  1
  H  H4  8  0.10708712  0.84437288  0.67768735  1
  H  H5  8  0.10754230  0.61301482  0.67678860  1
  C  C6  8  0.10238348  0.23260390  0.77485821  1
  C  C7  8  0.10548180  0.73166828  0.48070274  1
  C  C8  8  0.13151230  0.22962681  0.60467831  1
  C  C9  8  0.14932579  0.23155785  0.69592723  1
  C  C10  8  0.16405269  0.72930026  0.64913053  1
  C  C11  8  0.16595905  0.73102767  0.55758337  1
  O  O12  8  0.23279135  0.25276986  0.17909982  1
