###############################################################################################
#
# CIF file generated by modified CIFWriter class 
# in pymatgen (v2025.03.10) https://pymatgen.org/
#
###############################################################################################
data_PBE+MBD_tight_2d17a357d3eaa32
_symmetry_space_group_name_H-M   P4_32_12
_cell_length_a   6.82575573
_cell_length_b   6.82575573
_cell_length_c   23.72985842
_cell_angle_alpha   90.00000000
_cell_angle_beta   90.00000000
_cell_angle_gamma   90.00000000
_symmetry_Int_Tables_number   96
_chemical_formula_moiety   'C6 H6 O'
_chemical_formula_sum   'H48 C48 O8'
_cell_volume   1105.59644070
_cell_formula_units_Z   8
loop_
 _symmetry_equiv_pos_site_id
 _symmetry_equiv_pos_as_xyz
  1  'x, y, z'
  2  '-y+1/2, x+1/2, z+3/4'
  3  '-x, -y, z+1/2'
  4  'y+1/2, -x+1/2, z+1/4'
  5  'x+1/2, -y+1/2, -z+1/4'
  6  '-y, -x, -z+1/2'
  7  '-x+1/2, y+1/2, -z+3/4'
  8  'y, x, -z'
loop_
 _atom_site_type_symbol
 _atom_site_label
 _atom_site_symmetry_multiplicity
 _atom_site_fract_x
 _atom_site_fract_y
 _atom_site_fract_z
 _atom_site_occupancy
  H  H0  8  -0.07820646  0.23322815  0.14162280  1
  H  H1  8  -0.07381512  0.40375542  0.56733263  1
  H  H2  8  -0.00251367  -0.19916899  0.17058319  1
  H  H3  8  0.05913083  -0.07975500  0.10571553  1
  H  H4  8  0.08212786  0.83775559  0.99451399  1
  H  H5  8  0.11671633  -0.14517984  0.79424495  1
  C  C6  8  -0.02810415  0.13253864  0.17458539  1
  C  C7  8  -0.00174017  0.44893282  0.81023043  1
  C  C8  8  -0.00079222  0.25482538  0.82298949  1
  C  C9  8  0.06082540  -0.06639984  0.15181490  1
  C  C10  8  0.17402270  0.17688854  0.19805815  1
  C  C11  8  0.17879333  0.77845020  0.52673628  1
  O  O12  8  0.00867150  0.66913670  0.53130623  1
