###############################################################################################
#
# CIF file generated by modified CIFWriter class 
# in pymatgen (v2025.03.10) https://pymatgen.org/
#
###############################################################################################
data_PBE+MBD_tight_2d1724a5b269106
_symmetry_space_group_name_H-M   Pccn
_cell_length_a   13.54173498
_cell_length_b   7.38476067
_cell_length_c   9.95303105
_cell_angle_alpha   90.00000000
_cell_angle_beta   90.00000000
_cell_angle_gamma   90.00000000
_symmetry_Int_Tables_number   56
_chemical_formula_moiety   'C6 H6 O'
_chemical_formula_sum   'H48 C48 O8'
_cell_volume   995.32770744
_cell_formula_units_Z   8
loop_
 _symmetry_equiv_pos_site_id
 _symmetry_equiv_pos_as_xyz
  1  'x, y, z'
  2  '-x, -y, -z'
  3  '-x+1/2, -y+1/2, z'
  4  'x+1/2, y+1/2, -z'
  5  '-x, y+1/2, -z+1/2'
  6  'x, -y+1/2, z+1/2'
  7  'x+1/2, -y, -z+1/2'
  8  '-x+1/2, y, z+1/2'
loop_
 _atom_site_type_symbol
 _atom_site_label
 _atom_site_symmetry_multiplicity
 _atom_site_fract_x
 _atom_site_fract_y
 _atom_site_fract_z
 _atom_site_occupancy
  H  H0  8  0.05007323  0.62868624  0.49903119  1
  H  H1  8  0.05129528  0.66384621  0.19731248  1
  H  H2  8  0.13115283  0.15976477  0.66657996  1
  H  H3  8  0.13192909  0.50535352  0.99218987  1
  H  H4  8  0.18152779  0.63460045  0.49207122  1
  H  H5  8  0.18307857  0.65605195  0.19247770  1
  C  C6  8  0.11772166  0.62236466  0.55959907  1
  C  C7  8  0.11840288  0.74538922  0.18532252  1
  C  C8  8  0.12326201  0.46747797  0.65975888  1
  C  C9  8  0.12364808  0.58610222  0.77234388  1
  C  C10  8  0.12890524  0.29528679  0.70739335  1
  C  C11  8  0.12938341  0.48267448  0.88500776  1
  O  O12  8  0.13252386  0.30299974  0.84611573  1
