###############################################################################################
#
# CIF file generated by modified CIFWriter class 
# in pymatgen (v2025.03.10) https://pymatgen.org/
#
###############################################################################################
data_PBE+MBD_tight_2da4d578b71b00f
_symmetry_space_group_name_H-M   P-4n2
_cell_length_a   13.53389847
_cell_length_b   13.53389847
_cell_length_c   6.08054968
_cell_angle_alpha   90.00000000
_cell_angle_beta   90.00000000
_cell_angle_gamma   90.00000000
_symmetry_Int_Tables_number   118
_chemical_formula_moiety   'C6 H6 O'
_chemical_formula_sum   'H48 C48 O8'
_cell_volume   1113.75244298
_cell_formula_units_Z   8
loop_
 _symmetry_equiv_pos_site_id
 _symmetry_equiv_pos_as_xyz
  1  'x, y, z'
  2  'y, -x, -z'
  3  '-x, -y, z'
  4  '-y, x, -z'
  5  '-x+1/2, y+1/2, z+1/2'
  6  '-y+1/2, -x+1/2, -z+1/2'
  7  'x+1/2, -y+1/2, z+1/2'
  8  'y+1/2, x+1/2, -z+1/2'
loop_
 _atom_site_type_symbol
 _atom_site_label
 _atom_site_symmetry_multiplicity
 _atom_site_fract_x
 _atom_site_fract_y
 _atom_site_fract_z
 _atom_site_occupancy
  H  H0  8  -0.17299363  0.28052874  1.07617872  1
  H  H1  8  -0.07842598  0.23811911  1.25797049  1
  H  H2  8  -0.06691596  0.42228827  0.96388664  1
  H  H3  8  0.02825406  0.38021410  1.14402874  1
  H  H4  8  0.05977107  1.06001234  0.25893722  1
  H  H5  8  0.12153434  0.29099633  0.55176177  1
  C  C6  8  -0.09348257  0.26697353  1.09262059  1
  C  C7  8  -0.04762802  0.20979567  0.90469688  1
  C  C8  8  -0.03140215  0.13360987  0.76462181  1
  C  C9  8  -0.02599486  0.35692031  1.02007576  1
  C  C10  8  0.01338184  0.29006681  0.83874355  1
  C  C11  8  0.06570270  0.26027172  0.65964015  1
  O  O12  8  0.03856805  0.16383595  0.61281319  1
