###############################################################################################
#
# CIF file generated by modified CIFWriter class 
# in pymatgen (v2025.03.10) https://pymatgen.org/
#
###############################################################################################
data_PBE+MBD_tight_2ec886f4e391016
_symmetry_space_group_name_H-M   I222
_cell_length_a   6.25067550
_cell_length_b   15.86192604
_cell_length_c   11.94786394
_cell_angle_alpha   90.00000000
_cell_angle_beta   90.00000000
_cell_angle_gamma   90.00000000
_symmetry_Int_Tables_number   23
_chemical_formula_moiety   'C6 H6 O'
_chemical_formula_sum   'H48 C48 O8'
_cell_volume   1184.60385635
_cell_formula_units_Z   8
loop_
 _symmetry_equiv_pos_site_id
 _symmetry_equiv_pos_as_xyz
  1  'x, y, z'
  2  '-x, y, -z'
  3  'x, -y, -z'
  4  '-x, -y, z'
  5  'x+1/2, y+1/2, z+1/2'
  6  '-x+1/2, y+1/2, -z+1/2'
  7  'x+1/2, -y+1/2, -z+1/2'
  8  '-x+1/2, -y+1/2, z+1/2'
loop_
 _atom_site_type_symbol
 _atom_site_label
 _atom_site_symmetry_multiplicity
 _atom_site_fract_x
 _atom_site_fract_y
 _atom_site_fract_z
 _atom_site_occupancy
  H  H0  8  0.10484859  0.07531228  0.57804799  1
  H  H1  8  0.10579774  0.22882848  0.62872152  1
  H  H2  8  0.10877639  0.27138123  0.12857447  1
  H  H3  8  0.10960654  0.42494413  0.07827483  1
  H  H4  8  0.24786337  -0.03132936  0.87108769  1
  H  H5  8  0.24843829  0.27864740  0.45288749  1
  C  C6  8  0.24762250  0.09652035  0.62377765  1
  C  C7  8  0.24770199  0.07901820  0.74878645  1
  C  C8  8  0.24838437  0.19367022  0.65515240  1
  C  C9  8  0.24853358  0.03414671  0.84568511  1
  C  C10  8  0.24863265  0.16601735  0.77688956  1
  C  C11  8  0.24998992  0.32808864  0.39042445  1
  O  O12  8  0.24985863  0.09090942  0.93327978  1
