###############################################################################################
#
# CIF file generated by modified CIFWriter class 
# in pymatgen (v2025.03.10) https://pymatgen.org/
#
###############################################################################################
data_PBE+MBD_tight_3282f8c9ebd7bda
_symmetry_space_group_name_H-M   Pbca
_cell_length_a   7.27083650
_cell_length_b   13.12945689
_cell_length_c   9.98302967
_cell_angle_alpha   90.00000000
_cell_angle_beta   90.00000000
_cell_angle_gamma   90.00000000
_symmetry_Int_Tables_number   61
_chemical_formula_moiety   'C6 H6 O'
_chemical_formula_sum   'H48 C48 O8'
_cell_volume   953.00132040
_cell_formula_units_Z   8
loop_
 _symmetry_equiv_pos_site_id
 _symmetry_equiv_pos_as_xyz
  1  'x, y, z'
  2  '-x, -y, -z'
  3  '-x+1/2, -y, z+1/2'
  4  'x+1/2, y, -z+1/2'
  5  'x+1/2, -y+1/2, -z'
  6  '-x+1/2, y+1/2, z'
  7  '-x, y+1/2, -z+1/2'
  8  'x, -y+1/2, z+1/2'
loop_
 _atom_site_type_symbol
 _atom_site_label
 _atom_site_symmetry_multiplicity
 _atom_site_fract_x
 _atom_site_fract_y
 _atom_site_fract_z
 _atom_site_occupancy
  H  H0  8  -0.03633036  0.18068435  0.33951130  1
  H  H1  8  -0.02912447  0.03370453  0.71577741  1
  H  H2  8  0.13638583  0.68797995  0.43592067  1
  H  H3  8  0.16089524  0.18111544  0.23389716  1
  H  H4  8  0.16665918  0.18728800  0.54122402  1
  H  H5  8  0.19343989  0.52029704  1.04959032  1
  C  C6  8  0.05543281  0.07086698  0.79054136  1
  C  C7  8  0.09818453  0.21627786  0.32254659  1
  C  C8  8  0.09824958  0.16804385  0.82533604  1
  C  C9  8  0.21349388  0.16389288  0.94030205  1
  C  C10  8  0.22646552  0.22076399  0.45028888  1
  C  C11  8  0.23804199  0.06411627  0.97225618  1
  O  O12  8  0.14195227  0.00613034  0.87985899  1
