###############################################################################################
#
# CIF file generated by modified CIFWriter class 
# in pymatgen (v2025.03.10) https://pymatgen.org/
#
###############################################################################################
data_PBE+MBD_tight_36b6eedecb4b274
_symmetry_space_group_name_H-M   C2/c
_cell_length_a   11.97324214
_cell_length_b   7.39517536
_cell_length_c   13.15972940
_cell_angle_alpha   90.00000000
_cell_angle_beta   112.13331072
_cell_angle_gamma   90.00000000
_symmetry_Int_Tables_number   15
_chemical_formula_moiety   'C6 H6 O'
_chemical_formula_sum   'H48 C48 O8'
_cell_volume   1079.35282740
_cell_formula_units_Z   8
loop_
 _symmetry_equiv_pos_site_id
 _symmetry_equiv_pos_as_xyz
  1  'x, y, z'
  2  '-x, -y, -z'
  3  '-x, y, -z+1/2'
  4  'x, -y, z+1/2'
  5  'x+1/2, y+1/2, z'
  6  '-x+1/2, -y+1/2, -z'
  7  '-x+1/2, y+1/2, -z+1/2'
  8  'x+1/2, -y+1/2, z+1/2'
loop_
 _atom_site_type_symbol
 _atom_site_label
 _atom_site_symmetry_multiplicity
 _atom_site_fract_x
 _atom_site_fract_y
 _atom_site_fract_z
 _atom_site_occupancy
  H  H0  8  -0.01933220  0.40029431  0.58627377  1
  H  H1  8  -0.01749699  0.26397572  0.47528184  1
  H  H2  8  0.05733003  0.86198055  0.21435432  1
  H  H3  8  0.06010526  0.99710342  0.10449909  1
  H  H4  8  0.09575090  0.63261476  0.74061864  1
  H  H5  8  0.22121752  -0.05617879  0.45962580  1
  C  C6  8  0.03374161  0.69867574  0.06111864  1
  C  C7  8  0.08251090  0.13680334  0.64257317  1
  C  C8  8  0.16489186  0.64868795  0.08764391  1
  C  C9  8  0.16930699  0.70905654  0.79874824  1
  C  C10  8  0.20833154  0.79573927  0.16171450  1
  C  C11  8  0.23785287  0.05906765  0.41646747  1
  O  O12  8  0.13520435  0.85458723  0.84667282  1
