###############################################################################################
#
# CIF file generated by modified CIFWriter class 
# in pymatgen (v2025.03.10) https://pymatgen.org/
#
###############################################################################################
data_PBE+MBD_tight_3b08cd19ca9c914
_symmetry_space_group_name_H-M   C2/c
_cell_length_a   13.48795498
_cell_length_b   9.31688535
_cell_length_c   10.07363089
_cell_angle_alpha   90.00000000
_cell_angle_beta   52.49199996
_cell_angle_gamma   90.00000000
_symmetry_Int_Tables_number   15
_chemical_formula_moiety   'C6 H6 O'
_chemical_formula_sum   'H48 C48 O8'
_cell_volume   1004.20645887
_cell_formula_units_Z   8
loop_
 _symmetry_equiv_pos_site_id
 _symmetry_equiv_pos_as_xyz
  1  'x, y, z'
  2  '-x, -y, -z'
  3  '-x, y, -z+1/2'
  4  'x, -y, z+1/2'
  5  'x+1/2, y+1/2, z'
  6  '-x+1/2, -y+1/2, -z'
  7  '-x+1/2, y+1/2, -z+1/2'
  8  'x+1/2, -y+1/2, z+1/2'
loop_
 _atom_site_type_symbol
 _atom_site_label
 _atom_site_symmetry_multiplicity
 _atom_site_fract_x
 _atom_site_fract_y
 _atom_site_fract_z
 _atom_site_occupancy
  H  H0  8  -0.05977445  0.35142686  0.41733311  1
  H  H1  8  0.08458913  1.03830072  0.74831461  1
  H  H2  8  0.12683735  0.28832598  0.62004548  1
  H  H3  8  0.18150246  0.53279670  0.27983248  1
  H  H4  8  0.19128506  1.07768346  0.87598658  1
  H  H5  8  0.20781949  0.92358798  0.59422762  1
  C  C6  8  0.00613984  0.70842083  0.92359860  1
  C  C7  8  0.08274009  0.82355557  0.84590707  1
  C  C8  8  0.10829126  0.25780218  0.53330719  1
  C  C9  8  0.14657274  0.04944731  0.22794242  1
  C  C10  8  0.14696217  0.15476680  0.41561596  1
  C  C11  8  0.21644597  0.97609934  0.80725267  1
  O  O12  8  0.02122255  0.34270661  0.53954069  1
