###############################################################################################
#
# CIF file generated by modified CIFWriter class 
# in pymatgen (v2025.03.10) https://pymatgen.org/
#
###############################################################################################
data_PBE+MBD_tight_3c05cb69009e0f5
_symmetry_space_group_name_H-M   Cmcm
_cell_length_a   12.33490523
_cell_length_b   13.51250846
_cell_length_c   7.14992433
_cell_angle_alpha   90.00000000
_cell_angle_beta   90.00000000
_cell_angle_gamma   90.00000000
_symmetry_Int_Tables_number   63
_chemical_formula_moiety   'C6 H6 O'
_chemical_formula_sum   'H48 C48 O8'
_cell_volume   1191.71729305
_cell_formula_units_Z   8
loop_
 _symmetry_equiv_pos_site_id
 _symmetry_equiv_pos_as_xyz
  1  'x, y, z'
  2  '-x, -y, -z+239/273'
  3  '-x, -y, z+1/2'
  4  'x, y, -z+205/546'
  5  'x, -y, -z+239/273'
  6  '-x, y, z'
  7  '-x, y, -z+205/546'
  8  'x, -y, z+1/2'
  9  'x+1/2, y+1/2, z'
  10  '-x+1/2, -y+1/2, -z+239/273'
  11  '-x+1/2, -y+1/2, z+1/2'
  12  'x+1/2, y+1/2, -z+205/546'
  13  'x+1/2, -y+1/2, -z+239/273'
  14  '-x+1/2, y+1/2, z'
  15  '-x+1/2, y+1/2, -z+205/546'
  16  'x+1/2, -y+1/2, z+1/2'
loop_
 _atom_site_type_symbol
 _atom_site_label
 _atom_site_symmetry_multiplicity
 _atom_site_fract_x
 _atom_site_fract_y
 _atom_site_fract_z
 _atom_site_occupancy
  H  H0  16  0.11525565  0.20005921  0.06264125  1
  H  H1  16  0.18539462  0.32196480  0.56287013  1
  H  H2  8  0.08223242  0.04979379  0.68772884  1
  H  H3  8  0.08658278  0.48742889  0.18772884  1
  C  C4  8  0.15573939  0.22921917  0.18772884  1
  C  C5  8  0.15664746  0.43923270  0.18772884  1
  C  C6  8  0.16301486  0.08097189  0.68772884  1
  C  C7  8  0.17678365  0.34027779  0.18772884  1
  C  C8  8  0.20861430  0.17248665  0.68772884  1
  C  C9  8  0.21694671  0.28467615  0.68772884  1
  O  O10  8  0.24518258  0.01164813  0.68772884  1
