###############################################################################################
#
# CIF file generated by modified CIFWriter class 
# in pymatgen (v2025.03.10) https://pymatgen.org/
#
###############################################################################################
data_PBE+MBD_tight_3eabedcbaa80dd4
_symmetry_space_group_name_H-M   C222_1
_cell_length_a   7.98924754
_cell_length_b   7.38230080
_cell_length_c   17.33683761
_cell_angle_alpha   90.00000000
_cell_angle_beta   90.00000000
_cell_angle_gamma   90.00000000
_symmetry_Int_Tables_number   20
_chemical_formula_moiety   'C6 H6 O'
_chemical_formula_sum   'H48 C48 O8'
_cell_volume   1022.50984024
_cell_formula_units_Z   8
loop_
 _symmetry_equiv_pos_site_id
 _symmetry_equiv_pos_as_xyz
  1  'x, y, z'
  2  '-x, -y, z+1/2'
  3  '-x, y, -z+1/2'
  4  'x, -y, -z'
  5  'x+1/2, y+1/2, z'
  6  '-x+1/2, -y+1/2, z+1/2'
  7  '-x+1/2, y+1/2, -z+1/2'
  8  'x+1/2, -y+1/2, -z'
loop_
 _atom_site_type_symbol
 _atom_site_label
 _atom_site_symmetry_multiplicity
 _atom_site_fract_x
 _atom_site_fract_y
 _atom_site_fract_z
 _atom_site_occupancy
  H  H0  8  -0.17701105  0.33589319  0.56549463  1
  H  H1  8  -0.03038916  -0.16385704  0.61458415  1
  H  H2  8  -0.01166717  0.30416546  0.49756505  1
  H  H3  8  0.01171903  0.48148042  0.35159404  1
  H  H4  8  0.17817289  0.49018424  0.58065576  1
  H  H5  8  0.21496336  0.35559184  0.25080142  1
  C  C6  8  -0.04374120  0.30303911  0.55905437  1
  C  C7  8  0.01732290  0.13905806  0.60393205  1
  C  C8  8  0.02818932  -0.03551840  0.62822423  1
  C  C9  8  0.07706510  0.42030303  0.61159241  1
  C  C10  8  0.12574060  0.24444595  0.65100392  1
  C  C11  8  0.19969590  0.13144330  0.70264105  1
  O  O12  8  0.14119702  -0.04186492  0.68864413  1
