###############################################################################################
#
# CIF file generated by modified CIFWriter class 
# in pymatgen (v2025.03.10) https://pymatgen.org/
#
###############################################################################################
data_PBE+MBD_tight_41162cc35f9704e
_symmetry_space_group_name_H-M   P-42_1c
_cell_length_a   9.70486572
_cell_length_b   9.70486572
_cell_length_c   10.69730388
_cell_angle_alpha   90.00000000
_cell_angle_beta   90.00000000
_cell_angle_gamma   90.00000000
_symmetry_Int_Tables_number   114
_chemical_formula_moiety   'C6 H6 O'
_chemical_formula_sum   'H48 C48 O8'
_cell_volume   1007.51934646
_cell_formula_units_Z   8
loop_
 _symmetry_equiv_pos_site_id
 _symmetry_equiv_pos_as_xyz
  1  'x, y, z'
  2  'y, -x, -z'
  3  '-x, -y, z'
  4  '-y, x, -z'
  5  'x+1/2, -y+1/2, -z+1/2'
  6  'y+1/2, x+1/2, z+1/2'
  7  '-x+1/2, y+1/2, -z+1/2'
  8  '-y+1/2, -x+1/2, z+1/2'
loop_
 _atom_site_type_symbol
 _atom_site_label
 _atom_site_symmetry_multiplicity
 _atom_site_fract_x
 _atom_site_fract_y
 _atom_site_fract_z
 _atom_site_occupancy
  H  H0  8  -0.04366642  0.31504425  1.03211610  1
  H  H1  8  0.00308689  0.16849078  0.45778234  1
  H  H2  8  0.03244629  0.86728356  0.18918786  1
  H  H3  8  0.05120140  0.15134910  0.70695740  1
  H  H4  8  0.13893732  0.64171982  0.73574789  1
  H  H5  8  0.22186445  0.75863212  0.83961172  1
  C  C6  8  0.05318779  0.31647949  0.98213196  1
  C  C7  8  0.08490950  0.24214100  0.44095134  1
  C  C8  8  0.11274323  0.24511796  0.88716523  1
  C  C9  8  0.12739072  0.14088667  0.78216714  1
  C  C10  8  0.19256864  0.25776689  0.36082318  1
  C  C11  8  0.20978150  0.72837718  0.24728281  1
  O  O12  8  0.07892480  0.35778009  0.51649038  1
