###############################################################################################
#
# CIF file generated by modified CIFWriter class 
# in pymatgen (v2025.03.10) https://pymatgen.org/
#
###############################################################################################
data_PBE+MBD_tight_42a8c8cad8fc3e8
_symmetry_space_group_name_H-M   I222
_cell_length_a   7.31194529
_cell_length_b   10.93919038
_cell_length_c   13.88763144
_cell_angle_alpha   90.00000000
_cell_angle_beta   90.00000000
_cell_angle_gamma   90.00000000
_symmetry_Int_Tables_number   23
_chemical_formula_moiety   'C6 H6 O'
_chemical_formula_sum   'H48 C48 O8'
_cell_volume   1110.82666392
_cell_formula_units_Z   8
loop_
 _symmetry_equiv_pos_site_id
 _symmetry_equiv_pos_as_xyz
  1  'x, y, z'
  2  '-x, -y, z'
  3  'x, -y, -z'
  4  '-x, y, -z'
  5  'x+1/2, y+1/2, z+1/2'
  6  '-x+1/2, -y+1/2, z+1/2'
  7  'x+1/2, -y+1/2, -z+1/2'
  8  '-x+1/2, y+1/2, -z+1/2'
loop_
 _atom_site_type_symbol
 _atom_site_label
 _atom_site_symmetry_multiplicity
 _atom_site_fract_x
 _atom_site_fract_y
 _atom_site_fract_z
 _atom_site_occupancy
  H  H0  8  -0.15958501  0.17741454  0.62472571  1
  H  H1  8  -0.03352016  0.30631007  0.07356735  1
  H  H2  8  -0.02161892  0.29262185  0.20148451  1
  H  H3  8  0.18096231  0.48406443  0.07966546  1
  H  H4  8  0.18866178  0.47268202  0.20772777  1
  H  H5  8  0.19133450  0.47279030  0.60782046  1
  C  C6  8  -0.02238682  0.21442111  0.62411207  1
  C  C7  8  0.05889559  0.30716068  0.13586521  1
  C  C8  8  0.15109191  0.17115724  0.63139635  1
  C  C9  8  0.16932447  0.37542716  0.61620294  1
  C  C10  8  0.19383074  0.42027911  0.14036350  1
  C  C11  8  0.22791495  0.22728822  0.12638461  1
  O  O12  8  -0.01285435  0.34019202  0.61499856  1
