###############################################################################################
#
# CIF file generated by modified CIFWriter class 
# in pymatgen (v2025.03.10) https://pymatgen.org/
#
###############################################################################################
data_PBE+MBD_tight_42fd48b3f35ffdc
_symmetry_space_group_name_H-M   P-42c
_cell_length_a   12.41952617
_cell_length_b   12.41952617
_cell_length_c   7.04282715
_cell_angle_alpha   90.00000000
_cell_angle_beta   90.00000000
_cell_angle_gamma   90.00000000
_symmetry_Int_Tables_number   112
_chemical_formula_moiety   'C6 H6 O'
_chemical_formula_sum   'H48 C48 O8'
_cell_volume   1086.31827013
_cell_formula_units_Z   8
loop_
 _symmetry_equiv_pos_site_id
 _symmetry_equiv_pos_as_xyz
  1  'x, y, z'
  2  'y, -x, -z'
  3  '-x, -y, z'
  4  '-y, x, -z'
  5  'x, -y, -z+1/2'
  6  'y, x, z+1/2'
  7  '-x, y, -z+1/2'
  8  '-y, -x, z+1/2'
loop_
 _atom_site_type_symbol
 _atom_site_label
 _atom_site_symmetry_multiplicity
 _atom_site_fract_x
 _atom_site_fract_y
 _atom_site_fract_z
 _atom_site_occupancy
  H  H0  8  -0.06604641  0.28782251  0.12561430  1
  H  H1  8  -0.06572250  0.28826675  -0.12707011  1
  H  H2  8  0.06708040  0.13663839  -0.12638872  1
  H  H3  8  0.06835350  0.13818597  0.12612388  1
  H  H4  8  0.11920868  0.46053586  0.49822476  1
  H  H5  8  0.29171978  0.34082312  0.49388054  1
  C  C6  8  -0.01420140  0.28442311  -0.00055277  1
  C  C7  8  0.07048766  0.18919939  -0.00115897  1
  C  C8  8  0.08170171  0.36040135  -0.00076668  1
  C  C9  8  0.13762747  0.45443876  -0.00040643  1
  C  C10  8  0.15782051  0.27489509  -0.00299117  1
  C  C11  8  0.25803282  0.31917950  -0.00416585  1
  O  O12  8  0.24601885  0.42976254  -0.00257883  1
