###############################################################################################
#
# CIF file generated by modified CIFWriter class 
# in pymatgen (v2025.03.10) https://pymatgen.org/
#
###############################################################################################
data_PBE+MBD_tight_443d07367032778
_symmetry_space_group_name_H-M   P-4n2
_cell_length_a   12.01635755
_cell_length_b   12.01635755
_cell_length_c   7.03551858
_cell_angle_alpha   90.00000000
_cell_angle_beta   90.00000000
_cell_angle_gamma   90.00000000
_symmetry_Int_Tables_number   118
_chemical_formula_moiety   'C6 H6 O'
_chemical_formula_sum   'H48 C48 O8'
_cell_volume   1015.87857049
_cell_formula_units_Z   8
loop_
 _symmetry_equiv_pos_site_id
 _symmetry_equiv_pos_as_xyz
  1  'x, y, z'
  2  'y, -x, -z'
  3  '-x, -y, z'
  4  '-y, x, -z'
  5  '-x+1/2, y+1/2, z+1/2'
  6  '-y+1/2, -x+1/2, -z+1/2'
  7  'x+1/2, -y+1/2, z+1/2'
  8  'y+1/2, x+1/2, -z+1/2'
loop_
 _atom_site_type_symbol
 _atom_site_label
 _atom_site_symmetry_multiplicity
 _atom_site_fract_x
 _atom_site_fract_y
 _atom_site_fract_z
 _atom_site_occupancy
  H  H0  8  -0.04951095  0.78522915  0.41614180  1
  H  H1  8  0.05991291  0.68584022  0.43588528  1
  H  H2  8  0.07519104  0.08585175  0.71421621  1
  H  H3  8  0.08969698  0.40814787  0.53989094  1
  H  H4  8  0.14367957  0.81221248  -0.23645145  1
  H  H5  8  0.17343604  0.19528684  0.68043625  1
  C  C6  8  -0.03270182  0.65585045  -0.01332805  1
  C  C7  8  0.00659187  0.71397602  0.13829863  1
  C  C8  8  0.02313661  0.74962203  0.34373456  1
  C  C9  8  0.08708592  0.79097996  0.06985521  1
  C  C10  8  0.09535291  0.77714377  -0.12127909  1
  C  C11  8  0.11008513  0.83741503  0.26654422  1
  O  O12  8  0.02151295  0.69433677  -0.17401141  1
