###############################################################################################
#
# CIF file generated by modified CIFWriter class 
# in pymatgen (v2025.03.10) https://pymatgen.org/
#
###############################################################################################
data_PBE+MBD_tight_480fcc3948b1ad1
_symmetry_space_group_name_H-M   P4_32_12
_cell_length_a   15.03938268
_cell_length_b   15.03938268
_cell_length_c   4.75467880
_cell_angle_alpha   90.00000000
_cell_angle_beta   90.00000000
_cell_angle_gamma   90.00000000
_symmetry_Int_Tables_number   96
_chemical_formula_moiety   'C6 H6 O'
_chemical_formula_sum   'H48 C48 O8'
_cell_volume   1075.42766454
_cell_formula_units_Z   8
loop_
 _symmetry_equiv_pos_site_id
 _symmetry_equiv_pos_as_xyz
  1  'x, y, z'
  2  '-y+1/2, x+1/2, z+3/4'
  3  '-x, -y, z+1/2'
  4  'y+1/2, -x+1/2, z+1/4'
  5  'x+1/2, -y+1/2, -z+1/4'
  6  '-y, -x, -z+1/2'
  7  '-x+1/2, y+1/2, -z+3/4'
  8  'y, x, -z'
loop_
 _atom_site_type_symbol
 _atom_site_label
 _atom_site_symmetry_multiplicity
 _atom_site_fract_x
 _atom_site_fract_y
 _atom_site_fract_z
 _atom_site_occupancy
  H  H0  8  -0.14093047  0.19015770  0.45222981  1
  H  H1  8  -0.10858841  0.26404063  0.72751635  1
  H  H2  8  -0.02007761  0.38550377  0.03764706  1
  H  H3  8  -0.01359428  0.09055245  0.56906616  1
  H  H4  8  0.01838374  0.16405559  0.84645984  1
  H  H5  8  0.19058153  0.21999704  0.23720058  1
  C  C6  8  -0.08419614  0.22383324  0.55121601  1
  C  C7  8  -0.02136879  0.27125569  0.35133920  1
  C  C8  8  -0.00355521  0.16049983  0.62654322  1
  C  C9  8  0.00762867  0.33065227  0.15645899  1
  C  C10  8  0.05102527  0.21427347  0.41884698  1
  C  C11  8  0.12208202  0.24046278  0.26321290  1
  O  O12  8  0.09603664  0.31209175  0.10001051  1
