###############################################################################################
#
# CIF file generated by modified CIFWriter class 
# in pymatgen (v2025.03.10) https://pymatgen.org/
#
###############################################################################################
data_PBE+MBD_tight_48e7601d4742af1
_symmetry_space_group_name_H-M   P4_12_12
_cell_length_a   5.26774781
_cell_length_b   5.26774781
_cell_length_c   34.32042543
_cell_angle_alpha   90.00000000
_cell_angle_beta   90.00000000
_cell_angle_gamma   90.00000000
_symmetry_Int_Tables_number   92
_chemical_formula_moiety   'C6 H6 O'
_chemical_formula_sum   'H48 C48 O8'
_cell_volume   952.36321738
_cell_formula_units_Z   8
loop_
 _symmetry_equiv_pos_site_id
 _symmetry_equiv_pos_as_xyz
  1  'x, y, z'
  2  '-y+1/2, x+1/2, z+1/4'
  3  '-x, -y, z+1/2'
  4  'y+1/2, -x+1/2, z+3/4'
  5  'x+1/2, -y+1/2, -z+3/4'
  6  '-y, -x, -z+1/2'
  7  '-x+1/2, y+1/2, -z+1/4'
  8  'y, x, -z'
loop_
 _atom_site_type_symbol
 _atom_site_label
 _atom_site_symmetry_multiplicity
 _atom_site_fract_x
 _atom_site_fract_y
 _atom_site_fract_z
 _atom_site_occupancy
  H  H0  8  -0.13609955  0.68242102  0.18941804  1
  H  H1  8  -0.04552393  0.30301804  0.23001587  1
  H  H2  8  -0.02366360  0.31524559  1.00741690  1
  H  H3  8  0.03481734  0.22458561  0.12948674  1
  H  H4  8  0.07032209  0.60876690  0.81657747  1
  H  H5  8  0.08318604  0.86422776  0.21765279  1
  C  C6  8  -0.12487137  0.18324912  0.94804424  1
  C  C7  8  -0.06239157  0.38694480  0.97797628  1
  C  C8  8  -0.00676618  -0.25282002  0.07023463  1
  C  C9  8  0.05324138  0.68236133  0.20274783  1
  C  C10  8  0.07349842  0.10074992  0.10502926  1
  C  C11  8  0.09774946  0.23423734  0.92592827  1
  O  O12  8  -0.07595636  -0.11482362  0.10287585  1
