###############################################################################################
#
# CIF file generated by modified CIFWriter class 
# in pymatgen (v2025.03.10) https://pymatgen.org/
#
###############################################################################################
data_PBE+MBD_tight_4b0822e156809ab
_symmetry_space_group_name_H-M   P4_12_12
_cell_length_a   6.90546134
_cell_length_b   6.90546134
_cell_length_c   22.22771424
_cell_angle_alpha   90.00000000
_cell_angle_beta   90.00000000
_cell_angle_gamma   90.00000000
_symmetry_Int_Tables_number   92
_chemical_formula_moiety   'C6 H6 O'
_chemical_formula_sum   'H48 C48 O8'
_cell_volume   1059.93736335
_cell_formula_units_Z   8
loop_
 _symmetry_equiv_pos_site_id
 _symmetry_equiv_pos_as_xyz
  1  'x, y, z'
  2  '-y+1/2, x+1/2, z+1/4'
  3  '-x, -y, z+1/2'
  4  'y+1/2, -x+1/2, z+3/4'
  5  'x+1/2, -y+1/2, -z+3/4'
  6  '-y, -x, -z+1/2'
  7  '-x+1/2, y+1/2, -z+1/4'
  8  'y, x, -z'
loop_
 _atom_site_type_symbol
 _atom_site_label
 _atom_site_symmetry_multiplicity
 _atom_site_fract_x
 _atom_site_fract_y
 _atom_site_fract_z
 _atom_site_occupancy
  H  H0  8  -0.08381483  0.62651773  0.36576101  1
  H  H1  8  -0.07216335  0.36993798  0.35739792  1
  H  H2  8  -0.03469236  1.12273776  0.54949661  1
  H  H3  8  0.00967745  0.86680100  0.71689225  1
  H  H4  8  0.07428895  0.66841266  0.26498433  1
  H  H5  8  0.07732418  0.41289029  0.25520042  1
  C  C6  8  -0.03002623  0.60551429  0.53729182  1
  C  C7  8  -0.02125746  0.79965743  0.56940896  1
  C  C8  8  -0.00567810  0.50811173  0.60141445  1
  C  C9  8  -0.00423745  0.71163585  0.62700504  1
  C  C10  8  0.00175742  0.85587065  0.66844141  1
  C  C11  8  0.00515774  1.02318067  0.92253362  1
  O  O12  8  -0.00888701  1.03143144  0.63850895  1
