###############################################################################################
#
# CIF file generated by modified CIFWriter class 
# in pymatgen (v2025.03.10) https://pymatgen.org/
#
###############################################################################################
data_PBE+MBD_tight_4cc6931f53e59bc
_symmetry_space_group_name_H-M   P-4c2
_cell_length_a   10.18684287
_cell_length_b   10.18684287
_cell_length_c   10.26128358
_cell_angle_alpha   90.00000000
_cell_angle_beta   90.00000000
_cell_angle_gamma   90.00000000
_symmetry_Int_Tables_number   116
_chemical_formula_moiety   'C6 H6 O'
_chemical_formula_sum   'H48 C48 O8'
_cell_volume   1064.83153409
_cell_formula_units_Z   8
loop_
 _symmetry_equiv_pos_site_id
 _symmetry_equiv_pos_as_xyz
  1  'x, y, z'
  2  'y, -x, -z'
  3  '-x, -y, z'
  4  '-y, x, -z'
  5  '-x, y, z+1/2'
  6  '-y, -x, -z+1/2'
  7  'x, -y, z+1/2'
  8  'y, x, -z+1/2'
loop_
 _atom_site_type_symbol
 _atom_site_label
 _atom_site_symmetry_multiplicity
 _atom_site_fract_x
 _atom_site_fract_y
 _atom_site_fract_z
 _atom_site_occupancy
  H  H0  8  -0.05448314  0.26852840  0.40767323  1
  H  H1  8  0.06058567  0.36739281  0.60047517  1
  H  H2  8  0.07487506  0.15097579  0.39215555  1
  H  H3  8  0.16293321  0.40013082  0.11055631  1
  H  H4  8  0.19014283  0.25218061  0.58286831  1
  H  H5  8  0.34904678  0.43049031  0.92607131  1
  C  C6  8  0.05248010  0.25530031  0.40826664  1
  C  C7  8  0.12474218  0.31888584  0.52944535  1
  C  C8  8  0.12868739  0.35116629  0.32411890  1
  C  C9  8  0.17614785  0.40916355  0.21484238  1
  C  C10  8  0.19319424  0.40879986  0.43271445  1
  C  C11  8  0.27817022  0.49910596  0.88650375  1
  O  O12  8  0.26750309  0.49786419  0.75210433  1
