###############################################################################################
#
# CIF file generated by modified CIFWriter class 
# in pymatgen (v2025.03.10) https://pymatgen.org/
#
###############################################################################################
data_PBE+MBD_tight_4d0b7237d0b6de5
_symmetry_space_group_name_H-M   P4_2/n
_cell_length_a   13.62441709
_cell_length_b   13.62441709
_cell_length_c   5.60374478
_cell_angle_alpha   90.00000000
_cell_angle_beta   90.00000000
_cell_angle_gamma   90.00000000
_symmetry_Int_Tables_number   86
_chemical_formula_moiety   'C6 H6 O'
_chemical_formula_sum   'H48 C48 O8'
_cell_volume   1040.19367317
_cell_formula_units_Z   8
loop_
 _symmetry_equiv_pos_site_id
 _symmetry_equiv_pos_as_xyz
  1  'x, y, z'
  2  '-y+1/2, x+1/2, z+1/2'
  3  '-x, -y, z'
  4  'y+1/2, -x+1/2, z+1/2'
  5  '-x+1/2, -y+1/2, -z+1/2'
  6  'y, -x, -z'
  7  'x+1/2, y+1/2, -z+1/2'
  8  '-y, x, -z'
loop_
 _atom_site_type_symbol
 _atom_site_label
 _atom_site_symmetry_multiplicity
 _atom_site_fract_x
 _atom_site_fract_y
 _atom_site_fract_z
 _atom_site_occupancy
  H  H0  8  -0.01198016  0.15274077  1.29397210  1
  H  H1  8  0.04087995  0.68158074  0.54033784  1
  H  H2  8  0.06612825  0.43281266  1.37643626  1
  H  H3  8  0.10951956  0.77372738  0.69334598  1
  H  H4  8  0.13013107  0.65994588  1.03659542  1
  H  H5  8  0.16714987  0.20150705  0.71187528  1
  C  C6  8  0.04244687  0.19678030  1.20267681  1
  C  C7  8  0.09237726  0.28183312  1.24171686  1
  C  C8  8  0.10721794  0.69573051  0.64470576  1
  C  C9  8  0.12315782  0.62400588  0.86248671  1
  C  C10  8  0.14054116  0.22265075  0.88663315  1
  C  C11  8  0.15486977  0.29789267  1.04221240  1
  O  O12  8  0.07167568  0.15990065  0.98408885  1
