###############################################################################################
#
# CIF file generated by modified CIFWriter class 
# in pymatgen (v2025.03.10) https://pymatgen.org/
#
###############################################################################################
data_PBE+MBD_tight_4e900eeb63cd806
_symmetry_space_group_name_H-M   P42_12
_cell_length_a   10.13432563
_cell_length_b   10.13432563
_cell_length_c   10.32505851
_cell_angle_alpha   90.00000000
_cell_angle_beta   90.00000000
_cell_angle_gamma   90.00000000
_symmetry_Int_Tables_number   90
_chemical_formula_moiety   'C6 H6 O'
_chemical_formula_sum   'H48 C48 O8'
_cell_volume   1060.43054933
_cell_formula_units_Z   8
loop_
 _symmetry_equiv_pos_site_id
 _symmetry_equiv_pos_as_xyz
  1  'x, y, z'
  2  '-y+1/2, x+1/2, z'
  3  '-x, -y, z'
  4  'y+1/2, -x+1/2, z'
  5  'x+1/2, -y+1/2, -z'
  6  '-y, -x, -z'
  7  '-x+1/2, y+1/2, -z'
  8  'y, x, -z'
loop_
 _atom_site_type_symbol
 _atom_site_label
 _atom_site_symmetry_multiplicity
 _atom_site_fract_x
 _atom_site_fract_y
 _atom_site_fract_z
 _atom_site_occupancy
  H  H0  8  -0.06022115  0.89477054  0.87099540  1
  H  H1  8  -0.05960994  0.89556505  0.62978765  1
  H  H2  8  -0.03739528  0.72142239  0.62975347  1
  H  H3  8  -0.03659714  0.72084432  0.87029626  1
  H  H4  8  0.15253938  0.67480436  0.05019022  1
  H  H5  8  0.15448344  0.67471214  0.44958367  1
  C  C6  8  -0.00368443  0.81424591  0.67352603  1
  C  C7  8  -0.00367017  0.81413334  0.82682029  1
  C  C8  8  0.14498483  0.83279257  0.81900067  1
  C  C9  8  0.14503005  0.83229546  0.68125468  1
  C  C10  8  0.15590707  0.72741365  0.14140382  1
  C  C11  8  0.15678293  0.72734232  0.35835096  1
  O  O12  8  0.14863823  0.35002324  0.24987718  1
