###############################################################################################
#
# CIF file generated by modified CIFWriter class 
# in pymatgen (v2025.03.10) https://pymatgen.org/
#
###############################################################################################
data_PBE+MBD_tight_5087121f4de8672
_symmetry_space_group_name_H-M   P4_32_12
_cell_length_a   6.59714252
_cell_length_b   6.59714252
_cell_length_c   22.64728844
_cell_angle_alpha   90.00000000
_cell_angle_beta   90.00000000
_cell_angle_gamma   90.00000000
_symmetry_Int_Tables_number   96
_chemical_formula_moiety   'C6 H6 O'
_chemical_formula_sum   'H48 C48 O8'
_cell_volume   985.66184269
_cell_formula_units_Z   8
loop_
 _symmetry_equiv_pos_site_id
 _symmetry_equiv_pos_as_xyz
  1  'x, y, z'
  2  '-y+1/2, x+1/2, z+3/4'
  3  '-x, -y, z+1/2'
  4  'y+1/2, -x+1/2, z+1/4'
  5  'x+1/2, -y+1/2, -z+1/4'
  6  '-y, -x, -z+1/2'
  7  '-x+1/2, y+1/2, -z+3/4'
  8  'y, x, -z'
loop_
 _atom_site_type_symbol
 _atom_site_label
 _atom_site_symmetry_multiplicity
 _atom_site_fract_x
 _atom_site_fract_y
 _atom_site_fract_z
 _atom_site_occupancy
  H  H0  8  -0.14120702  0.70038514  0.08213858  1
  H  H1  8  -0.00353891  0.43032232  0.44382729  1
  H  H2  8  0.05697119  0.60326964  0.75712984  1
  H  H3  8  0.06268222  0.15900158  0.71674472  1
  H  H4  8  0.07554223  1.27329013  0.12153797  1
  H  H5  8  0.18293777  0.25814982  0.78141021  1
  C  C6  8  -0.03284152  0.76579091  0.43358699  1
  C  C7  8  -0.02488902  0.81567100  0.07835535  1
  C  C8  8  -0.00261731  0.57261585  0.46888691  1
  C  C9  8  0.09344599  1.12702218  0.10050932  1
  C  C10  8  0.15475513  0.28387356  0.73425600  1
  C  C11  8  0.15937331  0.83653514  0.05231444  1
  O  O12  8  0.00571193  1.06729984  0.39172172  1
