###############################################################################################
#
# CIF file generated by modified CIFWriter class 
# in pymatgen (v2025.03.10) https://pymatgen.org/
#
###############################################################################################
data_PBE+MBD_tight_5092df6a5daa44
_symmetry_space_group_name_H-M   Pccn
_cell_length_a   8.30874918
_cell_length_b   11.77973532
_cell_length_c   10.52540028
_cell_angle_alpha   90.00000000
_cell_angle_beta   90.00000000
_cell_angle_gamma   90.00000000
_symmetry_Int_Tables_number   56
_chemical_formula_moiety   'C6 H6 O'
_chemical_formula_sum   'H48 C48 O8'
_cell_volume   1030.17214410
_cell_formula_units_Z   8
loop_
 _symmetry_equiv_pos_site_id
 _symmetry_equiv_pos_as_xyz
  1  'x, y, z'
  2  '-x, -y, -z'
  3  '-x+1/2, -y+1/2, z'
  4  'x+1/2, y+1/2, -z'
  5  'x+1/2, -y, -z+1/2'
  6  '-x+1/2, y, z+1/2'
  7  '-x, y+1/2, -z+1/2'
  8  'x, -y+1/2, z+1/2'
loop_
 _atom_site_type_symbol
 _atom_site_label
 _atom_site_symmetry_multiplicity
 _atom_site_fract_x
 _atom_site_fract_y
 _atom_site_fract_z
 _atom_site_occupancy
  H  H0  8  -0.12187954  0.23449776  0.39715407  1
  H  H1  8  -0.10303783  0.18791675  0.67366215  1
  H  H2  8  0.06581791  0.16385272  0.37377580  1
  H  H3  8  0.08783887  0.24586606  0.15621549  1
  H  H4  8  0.18438210  0.07041318  1.08660729  1
  H  H5  8  0.20579218  -0.06673553  0.72545562  1
  C  C6  8  0.00106935  0.24406910  0.36019051  1
  C  C7  8  0.01208287  0.20473089  0.72118805  1
  C  C8  8  0.08827570  0.15003479  0.90500613  1
  C  C9  8  0.09525877  0.10292716  0.78079849  1
  C  C10  8  0.16080650  0.07600890  0.98560661  1
  C  C11  8  0.17164685  0.00112755  0.78932386  1
  O  O12  8  0.21321395  -0.01613431  0.91516816  1
