###############################################################################################
#
# CIF file generated by modified CIFWriter class 
# in pymatgen (v2025.03.10) https://pymatgen.org/
#
###############################################################################################
data_PBE+MBD_tight_52b6cc026bc31b5
_symmetry_space_group_name_H-M   I-4
_cell_length_a   9.79847521
_cell_length_b   9.79847521
_cell_length_c   12.39146507
_cell_angle_alpha   90.00000000
_cell_angle_beta   90.00000000
_cell_angle_gamma   90.00000000
_symmetry_Int_Tables_number   82
_chemical_formula_moiety   'C6 H6 O'
_chemical_formula_sum   'H48 C48 O8'
_cell_volume   1189.70600332
_cell_formula_units_Z   8
loop_
 _symmetry_equiv_pos_site_id
 _symmetry_equiv_pos_as_xyz
  1  'x, y, z'
  2  'y, -x, -z'
  3  '-x, -y, z'
  4  '-y, x, -z'
  5  'x+1/2, y+1/2, z+1/2'
  6  'y+1/2, -x+1/2, -z+1/2'
  7  '-x+1/2, -y+1/2, z+1/2'
  8  '-y+1/2, x+1/2, -z+1/2'
loop_
 _atom_site_type_symbol
 _atom_site_label
 _atom_site_symmetry_multiplicity
 _atom_site_fract_x
 _atom_site_fract_y
 _atom_site_fract_z
 _atom_site_occupancy
  H  H0  8  -0.06803483  0.23115980  0.05867710  1
  H  H1  8  -0.05472426  0.29505680  0.19313831  1
  H  H2  8  -0.05210557  0.84142412  0.79709730  1
  H  H3  8  0.03707732  0.62271842  0.37036831  1
  H  H4  8  0.04913142  0.27544500  0.60445055  1
  H  H5  8  0.10523891  0.60691212  0.50313257  1
  C  C6  8  0.00374171  0.26298638  0.12180286  1
  C  C7  8  0.04774406  0.81419388  0.82764655  1
  C  C8  8  0.11587387  0.36830801  0.08255373  1
  C  C9  8  0.12050986  0.16462218  0.14362918  1
  C  C10  8  0.15492063  0.30191795  0.61836873  1
  C  C11  8  0.22122660  0.25966052  0.10922117  1
  O  O12  8  0.06770312  0.67564175  0.84240985  1
