###############################################################################################
#
# CIF file generated by modified CIFWriter class 
# in pymatgen (v2025.03.10) https://pymatgen.org/
#
###############################################################################################
data_PBE+MBD_tight_5578010c9a88373
_symmetry_space_group_name_H-M   Pbca
_cell_length_a   7.48196506
_cell_length_b   24.64615517
_cell_length_c   5.33247784
_cell_angle_alpha   90.00000000
_cell_angle_beta   90.00000000
_cell_angle_gamma   90.00000000
_symmetry_Int_Tables_number   61
_chemical_formula_moiety   'C6 H6 O'
_chemical_formula_sum   'H48 C48 O8'
_cell_volume   983.31782842
_cell_formula_units_Z   8
loop_
 _symmetry_equiv_pos_site_id
 _symmetry_equiv_pos_as_xyz
  1  'x, y, z'
  2  '-x, -y, -z'
  3  '-x, y+1/2, -z+1/2'
  4  'x, -y+1/2, z+1/2'
  5  '-x+1/2, -y, z+1/2'
  6  'x+1/2, y, -z+1/2'
  7  'x+1/2, -y+1/2, -z'
  8  '-x+1/2, y+1/2, z'
loop_
 _atom_site_type_symbol
 _atom_site_label
 _atom_site_symmetry_multiplicity
 _atom_site_fract_x
 _atom_site_fract_y
 _atom_site_fract_z
 _atom_site_occupancy
  H  H0  8  -0.09826404  0.17654125  0.41143303  1
  H  H1  8  0.07910650  0.20268330  0.22337485  1
  H  H2  8  0.07916158  0.19556206  0.79726194  1
  H  H3  8  0.09409218  0.57000172  0.81321453  1
  H  H4  8  0.12276140  0.04154574  0.15895504  1
  H  H5  8  0.23979471  0.72016404  0.61052757  1
  C  C6  8  0.04716139  0.17639528  0.38330552  1
  C  C7  8  0.13137256  0.12037228  0.38124898  1
  C  C8  8  0.15994377  0.18778551  0.62920373  1
  C  C9  8  0.16219737  0.06828334  0.30997256  1
  C  C10  8  0.18176596  0.58385870  0.66479650  1
  C  C11  8  0.23033097  0.13026780  0.60414700  1
  O  O12  8  0.22221549  0.54559154  0.48365283  1
