###############################################################################################
#
# CIF file generated by modified CIFWriter class 
# in pymatgen (v2025.03.10) https://pymatgen.org/
#
###############################################################################################
data_PBE+MBD_tight_5d823ad5c4f694a
_symmetry_space_group_name_H-M   P-42c
_cell_length_a   9.30195030
_cell_length_b   9.30195030
_cell_length_c   13.17969631
_cell_angle_alpha   90.00000000
_cell_angle_beta   90.00000000
_cell_angle_gamma   90.00000000
_symmetry_Int_Tables_number   112
_chemical_formula_moiety   'C6 H6 O'
_chemical_formula_sum   'H48 C48 O8'
_cell_volume   1140.39008456
_cell_formula_units_Z   8
loop_
 _symmetry_equiv_pos_site_id
 _symmetry_equiv_pos_as_xyz
  1  'x, y, z'
  2  'y, -x, -z'
  3  '-x, -y, z'
  4  '-y, x, -z'
  5  'x, -y, -z+1/2'
  6  'y, x, z+1/2'
  7  '-x, y, -z+1/2'
  8  '-y, -x, z+1/2'
loop_
 _atom_site_type_symbol
 _atom_site_label
 _atom_site_symmetry_multiplicity
 _atom_site_fract_x
 _atom_site_fract_y
 _atom_site_fract_z
 _atom_site_occupancy
  H  H0  8  -0.04102188  0.22410594  0.35291963  1
  H  H1  8  0.10393179  0.43213411  0.59465830  1
  H  H2  8  0.10591855  0.24952027  0.63587407  1
  H  H3  8  0.22692475  0.39708710  -0.19636199  1
  H  H4  8  0.24032330  0.37352520  0.10611933  1
  H  H5  8  0.37034024  0.42509913  0.57103294  1
  C  C6  8  0.06715724  0.24010370  0.38076920  1
  C  C7  8  0.13218692  0.27806102  0.46893095  1
  C  C8  8  0.14702884  0.32462512  0.57867937  1
  C  C9  8  0.24119022  0.30611745  -0.14613145  1
  C  C10  8  0.27815967  0.28327291  -0.04768639  1
  C  C11  8  0.31583767  0.32131962  0.56124750  1
  O  O12  8  0.17369140  0.21708520  0.30911834  1
