###############################################################################################
#
# CIF file generated by modified CIFWriter class 
# in pymatgen (v2025.03.10) https://pymatgen.org/
#
###############################################################################################
data_PBE+MBD_tight_61eb6fb8babadb6
_symmetry_space_group_name_H-M   Pcca
_cell_length_a   19.73375068
_cell_length_b   4.52196019
_cell_length_c   11.50769374
_cell_angle_alpha   90.00000000
_cell_angle_beta   90.00000000
_cell_angle_gamma   90.00000000
_symmetry_Int_Tables_number   54
_chemical_formula_moiety   'C6 H6 O'
_chemical_formula_sum   'H48 C48 O8'
_cell_volume   1026.89175577
_cell_formula_units_Z   8
loop_
 _symmetry_equiv_pos_site_id
 _symmetry_equiv_pos_as_xyz
  1  'x, y, z'
  2  '-x, -y, -z'
  3  '-x+1/2, -y, z'
  4  'x+1/2, y, -z'
  5  'x+1/2, -y, -z+1/2'
  6  '-x+1/2, y, z+1/2'
  7  '-x, y, -z+1/2'
  8  'x, -y, z+1/2'
loop_
 _atom_site_type_symbol
 _atom_site_label
 _atom_site_symmetry_multiplicity
 _atom_site_fract_x
 _atom_site_fract_y
 _atom_site_fract_z
 _atom_site_occupancy
  H  H0  8  0.03503957  -0.06053724  1.10377843  1
  H  H1  8  0.04051895  0.41212011  0.36776859  1
  H  H2  8  0.07106528  0.27243441  0.78969031  1
  H  H3  8  0.16002217  0.23218416  0.38733421  1
  H  H4  8  0.18862990  0.44895511  0.80954261  1
  H  H5  8  0.23163212  0.24507069  1.13616455  1
  C  C6  8  0.07686059  0.07279646  1.07261621  1
  C  C7  8  0.07929241  0.41400342  0.86581900  1
  C  C8  8  0.09005515  0.25022591  0.97996573  1
  C  C9  8  0.15475387  0.47251465  0.37852487  1
  C  C10  8  0.15783952  0.35347973  0.99105151  1
  C  C11  8  0.18382502  0.23756587  1.09025891  1
  O  O12  8  0.13439573  0.06388993  1.14144905  1
