###############################################################################################
#
# CIF file generated by modified CIFWriter class 
# in pymatgen (v2025.03.10) https://pymatgen.org/
#
###############################################################################################
data_PBE+MBD_tight_697d6049f00ce15
_symmetry_space_group_name_H-M   Pbca
_cell_length_a   11.51739576
_cell_length_b   9.99910121
_cell_length_c   8.63777301
_cell_angle_alpha   90.00000000
_cell_angle_beta   90.00000000
_cell_angle_gamma   90.00000000
_symmetry_Int_Tables_number   61
_chemical_formula_moiety   'C6 H6 O'
_chemical_formula_sum   'H48 C48 O8'
_cell_volume   994.75708663
_cell_formula_units_Z   8
loop_
 _symmetry_equiv_pos_site_id
 _symmetry_equiv_pos_as_xyz
  1  'x, y, z'
  2  '-x, -y, -z'
  3  '-x, y+1/2, -z+1/2'
  4  'x, -y+1/2, z+1/2'
  5  '-x+1/2, -y, z+1/2'
  6  'x+1/2, y, -z+1/2'
  7  'x+1/2, -y+1/2, -z'
  8  '-x+1/2, y+1/2, z'
loop_
 _atom_site_type_symbol
 _atom_site_label
 _atom_site_symmetry_multiplicity
 _atom_site_fract_x
 _atom_site_fract_y
 _atom_site_fract_z
 _atom_site_occupancy
  H  H0  8  -0.07651805  0.07353163  0.26592317  1
  H  H1  8  -0.01778316  -0.14298562  0.14316856  1
  H  H2  8  0.03325653  0.05283012  0.40910670  1
  H  H3  8  0.09524193  -0.16164686  0.28347564  1
  H  H4  8  0.17380002  0.17928877  0.62734396  1
  H  H5  8  0.23977443  0.46746497  -0.09428492  1
  C  C6  8  0.01446695  0.04538989  0.28492548  1
  C  C7  8  0.05172375  -0.09091392  0.20545839  1
  C  C8  8  0.10119630  0.11366681  0.17885256  1
  C  C9  8  0.13274138  -0.00812091  0.10499842  1
  C  C10  8  0.16349949  0.21381849  0.11252837  1
  C  C11  8  0.21267531  0.02123206  -0.00569550  1
  O  O12  8  0.23255221  0.15799453  -0.00180123  1
