###############################################################################################
#
# CIF file generated by modified CIFWriter class 
# in pymatgen (v2025.03.10) https://pymatgen.org/
#
###############################################################################################
data_PBE+MBD_tight_6eb034e0dc61217
_symmetry_space_group_name_H-M   I4_1
_cell_length_a   13.50457908
_cell_length_b   13.50457908
_cell_length_c   5.48713746
_cell_angle_alpha   90.00000000
_cell_angle_beta   90.00000000
_cell_angle_gamma   90.00000000
_symmetry_Int_Tables_number   80
_chemical_formula_moiety   'C6 H6 O'
_chemical_formula_sum   'H48 C48 O8'
_cell_volume   1000.70932080
_cell_formula_units_Z   8
loop_
 _symmetry_equiv_pos_site_id
 _symmetry_equiv_pos_as_xyz
  1  'x, y, z'
  2  '-y, x+1/2, z+1/4'
  3  '-x+1/2, -y+1/2, z+1/2'
  4  'y+1/2, -x, z+3/4'
  5  'x+1/2, y+1/2, z+1/2'
  6  '-y+1/2, x, z+3/4'
  7  '-x, -y, z'
  8  'y, -x+1/2, z+1/4'
loop_
 _atom_site_type_symbol
 _atom_site_label
 _atom_site_symmetry_multiplicity
 _atom_site_fract_x
 _atom_site_fract_y
 _atom_site_fract_z
 _atom_site_occupancy
  H  H0  8  -0.13802347  0.26888017  0.91911998  1
  H  H1  8  -0.06723600  0.38802858  0.24704794  1
  H  H2  8  0.01621172  0.15564614  0.40785717  1
  H  H3  8  0.08670979  0.11293298  0.81354484  1
  H  H4  8  0.13443791  0.19815446  0.30974288  1
  H  H5  8  0.15502202  0.29454466  0.96676359  1
  C  C6  8  -0.08569380  0.30443457  0.79779433  1
  C  C7  8  -0.04693617  0.36893582  0.43220538  1
  C  C8  8  0.00959499  0.33688276  0.80865780  1
  C  C9  8  0.03404297  0.37746439  0.57738868  1
  C  C10  8  0.09552788  0.13835788  0.40579420  1
  C  C11  8  0.11125475  0.35956006  0.91350294  1
  O  O12  8  -0.12117267  0.32401464  0.56631665  1
