###############################################################################################
#
# CIF file generated by modified CIFWriter class 
# in pymatgen (v2025.03.10) https://pymatgen.org/
#
###############################################################################################
data_PBE+MBD_tight_70bfe635be1016d
_symmetry_space_group_name_H-M   I-4
_cell_length_a   13.43461381
_cell_length_b   13.43461381
_cell_length_c   5.65901484
_cell_angle_alpha   90.00000000
_cell_angle_beta   90.00000000
_cell_angle_gamma   90.00000000
_symmetry_Int_Tables_number   82
_chemical_formula_moiety   'C6 H6 O'
_chemical_formula_sum   'H48 C48 O8'
_cell_volume   1021.38907170
_cell_formula_units_Z   8
loop_
 _symmetry_equiv_pos_site_id
 _symmetry_equiv_pos_as_xyz
  1  'x, y, z'
  2  'y+1/2, -x+1/2, -z+1/2'
  3  '-x, -y, z'
  4  '-y+1/2, x+1/2, -z+1/2'
  5  'x+1/2, y+1/2, z+1/2'
  6  'y, -x, -z'
  7  '-x+1/2, -y+1/2, z+1/2'
  8  '-y, x, -z'
loop_
 _atom_site_type_symbol
 _atom_site_label
 _atom_site_symmetry_multiplicity
 _atom_site_fract_x
 _atom_site_fract_y
 _atom_site_fract_z
 _atom_site_occupancy
  H  H0  8  -0.05153766  0.65751722  0.77370073  1
  H  H1  8  0.06579886  0.08397987  0.26469162  1
  H  H2  8  0.07592920  0.64721746  0.13953344  1
  H  H3  8  0.10688404  0.32582458  0.17240002  1
  H  H4  8  0.15382383  0.81544815  0.11486125  1
  H  H5  8  0.22573827  0.25238769  0.69824771  1
  C  C6  8  0.00150429  0.70799357  0.69314248  1
  C  C7  8  0.06483787  0.70692312  0.50581898  1
  C  C8  8  0.07383720  0.85900023  0.67024508  1
  C  C9  8  0.11030679  0.80242409  0.49119571  1
  C  C10  8  0.12161085  0.66769663  0.29277543  1
  C  C11  8  0.17147429  0.77405149  0.27624317  1
  O  O12  8  0.00661787  0.80139888  0.79639379  1
