###############################################################################################
#
# CIF file generated by modified CIFWriter class 
# in pymatgen (v2025.03.10) https://pymatgen.org/
#
###############################################################################################
data_PBE+MBD_tight_70c9540c25d1d5d
_symmetry_space_group_name_H-M   P4_2bc
_cell_length_a   13.57814117
_cell_length_b   13.57814117
_cell_length_c   5.45177332
_cell_angle_alpha   90.00000000
_cell_angle_beta   90.00000000
_cell_angle_gamma   90.00000000
_symmetry_Int_Tables_number   106
_chemical_formula_moiety   'C6 H6 O'
_chemical_formula_sum   'H48 C48 O8'
_cell_volume   1005.12119171
_cell_formula_units_Z   8
loop_
 _symmetry_equiv_pos_site_id
 _symmetry_equiv_pos_as_xyz
  1  'x, y, z'
  2  '-y, x, z+1/2'
  3  '-x, -y, z'
  4  'y, -x, z+1/2'
  5  '-x+1/2, y+1/2, z'
  6  'y+1/2, x+1/2, z+1/2'
  7  'x+1/2, -y+1/2, z'
  8  '-y+1/2, -x+1/2, z+1/2'
loop_
 _atom_site_type_symbol
 _atom_site_label
 _atom_site_symmetry_multiplicity
 _atom_site_fract_x
 _atom_site_fract_y
 _atom_site_fract_z
 _atom_site_occupancy
  H  H0  8  -0.14628003  0.29715176  1.14486616  1
  H  H1  8  -0.02834782  0.36163142  0.49424364  1
  H  H2  8  0.04793503  0.42868540  0.70156405  1
  H  H3  8  0.07109045  0.08487749  1.08108678  1
  H  H4  8  0.10056246  0.23241268  0.45652278  1
  H  H5  8  0.17751324  0.30017883  0.66160354  1
  C  C6  8  -0.08085499  0.26875268  1.05551814  1
  C  C7  8  -0.02084104  0.29542387  0.86709997  1
  C  C8  8  0.02004893  0.35524609  0.65453837  1
  C  C9  8  0.03699859  0.15283709  1.02022656  1
  C  C10  8  0.05343613  0.22203711  0.84474213  1
  C  C11  8  0.10233952  0.27340548  0.62968157  1
  O  O12  8  -0.04565323  0.18122685  1.15151228  1
