###############################################################################################
#
# CIF file generated by modified CIFWriter class 
# in pymatgen (v2025.03.10) https://pymatgen.org/
#
###############################################################################################
data_PBE+MBD_tight_7133d6e8901467e
_symmetry_space_group_name_H-M   P-4b2
_cell_length_a   12.16588649
_cell_length_b   12.16588649
_cell_length_c   7.11319756
_cell_angle_alpha   90.00000000
_cell_angle_beta   90.00000000
_cell_angle_gamma   90.00000000
_symmetry_Int_Tables_number   117
_chemical_formula_moiety   'C6 H6 O'
_chemical_formula_sum   'H48 C48 O8'
_cell_volume   1052.81579378
_cell_formula_units_Z   8
loop_
 _symmetry_equiv_pos_site_id
 _symmetry_equiv_pos_as_xyz
  1  'x, y, z'
  2  'y, -x, -z'
  3  '-x, -y, z'
  4  '-y, x, -z'
  5  '-x+1/2, y+1/2, z'
  6  '-y+1/2, -x+1/2, -z'
  7  'x+1/2, -y+1/2, z'
  8  'y+1/2, x+1/2, -z'
loop_
 _atom_site_type_symbol
 _atom_site_label
 _atom_site_symmetry_multiplicity
 _atom_site_fract_x
 _atom_site_fract_y
 _atom_site_fract_z
 _atom_site_occupancy
  H  H0  8  -0.07822184  0.72871110  -0.14637087  1
  H  H1  8  -0.07442014  0.61592008  0.37360277  1
  H  H2  8  0.03594206  0.63617228  -0.14989874  1
  H  H3  8  0.05280463  0.88704037  -0.12929952  1
  H  H4  8  0.12061106  0.14001677  0.58925060  1
  H  H5  8  0.16532047  0.79337151  -0.13107430  1
  C  C6  8  -0.02356840  0.67812548  0.30875461  1
  C  C7  8  0.00151292  0.70954087  -0.08243697  1
  C  C8  8  0.00219154  0.70881411  0.13083360  1
  C  C9  8  0.07622325  0.79905047  0.14245732  1
  C  C10  8  0.08396712  0.80964873  -0.07058583  1
  C  C11  8  0.09323170  0.82104090  0.32775737  1
  O  O12  8  0.03199145  0.74659854  0.43195249  1
