###############################################################################################
#
# CIF file generated by modified CIFWriter class 
# in pymatgen (v2025.03.10) https://pymatgen.org/
#
###############################################################################################
data_PBE+MBD_tight_71da93e823ad9ba
_symmetry_space_group_name_H-M   Pnma
_cell_length_a   7.25130441
_cell_length_b   25.58840594
_cell_length_c   5.34308635
_cell_angle_alpha   90.00000000
_cell_angle_beta   90.00000000
_cell_angle_gamma   90.00000000
_symmetry_Int_Tables_number   62
_chemical_formula_moiety   'C6 H6 O'
_chemical_formula_sum   'H48 C48 O8'
_cell_volume   991.40604363
_cell_formula_units_Z   8
loop_
 _symmetry_equiv_pos_site_id
 _symmetry_equiv_pos_as_xyz
  1  'x, y, z'
  2  '-x, -y, -z'
  3  '-x+1/2, -y, z+1/2'
  4  'x+1/2, y, -z+1/2'
  5  'x+1/2, -y+1/2, -z+1/2'
  6  '-x+1/2, y+1/2, z+1/2'
  7  '-x, y+1/2, -z'
  8  'x, -y+1/2, z'
loop_
 _atom_site_type_symbol
 _atom_site_label
 _atom_site_symmetry_multiplicity
 _atom_site_fract_x
 _atom_site_fract_y
 _atom_site_fract_z
 _atom_site_occupancy
  H  H0  8  -0.05255031  0.19333898  0.90392105  1
  H  H1  8  0.02240856  0.04688864  0.68151792  1
  H  H2  8  0.14561810  0.19867215  1.28413867  1
  H  H3  8  0.14709358  0.19865034  0.71098215  1
  H  H4  8  0.15394651  0.70201433  0.59172826  1
  H  H5  8  0.16201576  0.55399141  0.82749782  1
  C  C6  8  0.08892048  0.17919385  0.87633833  1
  C  C7  8  0.09095067  0.06916707  0.82637842  1
  C  C8  8  0.11220629  0.12030257  0.88814731  1
  C  C9  8  0.21380766  0.18192504  1.11903836  1
  C  C10  8  0.22157150  0.12273428  1.10834875  1
  C  C11  8  0.23600741  0.57308205  0.67716634  1
  O  O12  8  0.18413767  0.03980710  1.00364135  1
