###############################################################################################
#
# CIF file generated by modified CIFWriter class 
# in pymatgen (v2025.03.10) https://pymatgen.org/
#
###############################################################################################
data_PBE+MBD_tight_730eaffdfb690c0
_symmetry_space_group_name_H-M   C2/c
_cell_length_a   5.22074570
_cell_length_b   9.89424362
_cell_length_c   19.22863524
_cell_angle_alpha   90.00000000
_cell_angle_beta   101.69213401
_cell_angle_gamma   90.00000000
_symmetry_Int_Tables_number   15
_chemical_formula_moiety   'C6 H6 O'
_chemical_formula_sum   'H48 C48 O8'
_cell_volume   972.65195659
_cell_formula_units_Z   8
loop_
 _symmetry_equiv_pos_site_id
 _symmetry_equiv_pos_as_xyz
  1  'x, y, z'
  2  '-x+1/2, -y+1/2, -z'
  3  '-x, y, -z+1/2'
  4  'x+1/2, -y+1/2, z+1/2'
  5  'x+1/2, y+1/2, z'
  6  '-x, -y, -z'
  7  '-x+1/2, y+1/2, -z+1/2'
  8  'x, -y, z+1/2'
loop_
 _atom_site_type_symbol
 _atom_site_label
 _atom_site_symmetry_multiplicity
 _atom_site_fract_x
 _atom_site_fract_y
 _atom_site_fract_z
 _atom_site_occupancy
  H  H0  8  -0.05740874  1.03926202  0.93362869  1
  H  H1  8  -0.05446205  0.37810793  0.44286889  1
  H  H2  8  -0.01156207  0.80289776  0.16303827  1
  H  H3  8  -0.00708318  0.55255510  0.16838424  1
  H  H4  8  0.22404646  0.94259174  0.76172582  1
  H  H5  8  0.22890483  0.69051843  0.76703712  1
  C  C6  8  -0.00003558  0.05764064  0.41548290  1
  C  C7  8  0.00251283  0.28493169  0.42052514  1
  C  C8  8  0.14252234  0.89645595  0.86854442  1
  C  C9  8  0.14409968  0.75280368  0.87162272  1
  C  C10  8  0.18276276  0.24062491  0.68291030  1
  C  C11  8  0.18541470  0.40054840  0.68628785  1
  O  O12  8  -0.08800343  0.16877826  0.44760321  1
