###############################################################################################
#
# CIF file generated by modified CIFWriter class 
# in pymatgen (v2025.03.10) https://pymatgen.org/
#
###############################################################################################
data_PBE+MBD_tight_76104764f647069
_symmetry_space_group_name_H-M   Cmc2_1
_cell_length_a   21.83704514
_cell_length_b   6.97266152
_cell_length_c   7.56457044
_cell_angle_alpha   90.00000000
_cell_angle_beta   90.00000000
_cell_angle_gamma   90.00000000
_symmetry_Int_Tables_number   36
_chemical_formula_moiety   'C6 H6 O'
_chemical_formula_sum   'H48 C48 O8'
_cell_volume   1151.79907850
_cell_formula_units_Z   8
loop_
 _symmetry_equiv_pos_site_id
 _symmetry_equiv_pos_as_xyz
  1  'x, y, z'
  2  '-x, -y, z+1/2'
  3  '-x, y, z'
  4  'x, -y, z+1/2'
  5  'x+1/2, y+1/2, z'
  6  '-x+1/2, -y+1/2, z+1/2'
  7  '-x+1/2, y+1/2, z'
  8  'x+1/2, -y+1/2, z+1/2'
loop_
 _atom_site_type_symbol
 _atom_site_label
 _atom_site_symmetry_multiplicity
 _atom_site_fract_x
 _atom_site_fract_y
 _atom_site_fract_z
 _atom_site_occupancy
  H  H0  8  0.05310600  0.15366674  0.81157753  1
  H  H1  8  0.05636735  0.43472492  0.35101237  1
  H  H2  8  0.06114585  -0.03567761  0.65525603  1
  H  H3  8  0.16339928  0.13562098  0.88222752  1
  H  H4  8  0.17235682  -0.05832335  0.73078743  1
  H  H5  8  0.24015076  0.39530406  0.47210872  1
  C  C6  8  0.08157365  0.09835972  0.70337690  1
  C  C7  8  0.09299034  0.37395972  0.42983508  1
  C  C8  8  0.09921065  0.24359532  0.56240083  1
  C  C9  8  0.15206982  0.08431446  0.74907941  1
  C  C10  8  0.16264081  0.22922862  0.60273827  1
  C  C11  8  0.19324075  0.35093594  0.49403980  1
  O  O12  8  0.15071301  0.44057112  0.38668712  1
