###############################################################################################
#
# CIF file generated by modified CIFWriter class 
# in pymatgen (v2025.03.10) https://pymatgen.org/
#
###############################################################################################
data_PBE+MBD_tight_76993e8e74c2174
_symmetry_space_group_name_H-M   P4/n
_cell_length_a   9.29506331
_cell_length_b   9.29506331
_cell_length_c   12.81906971
_cell_angle_alpha   90.00000000
_cell_angle_beta   90.00000000
_cell_angle_gamma   90.00000000
_symmetry_Int_Tables_number   85
_chemical_formula_moiety   'C6 H6 O'
_chemical_formula_sum   'H48 C48 O8'
_cell_volume   1107.54457293
_cell_formula_units_Z   8
loop_
 _symmetry_equiv_pos_site_id
 _symmetry_equiv_pos_as_xyz
  1  'x, y, z'
  2  '-y+1/2, x+1/2, z'
  3  '-x, -y, z'
  4  'y+1/2, -x+1/2, z'
  5  '-x+1/2, -y+1/2, -z'
  6  'y, -x, -z'
  7  'x+1/2, y+1/2, -z'
  8  '-y, x, -z'
loop_
 _atom_site_type_symbol
 _atom_site_label
 _atom_site_symmetry_multiplicity
 _atom_site_fract_x
 _atom_site_fract_y
 _atom_site_fract_z
 _atom_site_occupancy
  H  H0  8  -0.09181018  0.72452681  0.87526206  1
  H  H1  8  -0.01640256  0.84781684  0.58494648  1
  H  H2  8  0.01367000  0.21160295  0.39548774  1
  H  H3  8  0.04595376  0.28667047  0.09222009  1
  H  H4  8  0.08206874  0.68327195  0.59178063  1
  H  H5  8  0.17763646  0.31054764  0.38969319  1
  C  C6  8  0.00332700  0.77338145  0.84191396  1
  C  C7  8  0.05887471  0.79404678  0.74504958  1
  C  C8  8  0.06916110  0.79036976  0.62689461  1
  C  C9  8  0.10271701  0.21008452  0.14072510  1
  C  C10  8  0.12175376  0.21429815  0.36101237  1
  C  C11  8  0.12771793  0.18928233  0.24406081  1
  O  O12  8  0.09639079  0.83596693  0.91274868  1
