###############################################################################################
#
# CIF file generated by modified CIFWriter class 
# in pymatgen (v2025.03.10) https://pymatgen.org/
#
###############################################################################################
data_PBE+MBD_tight_774a66824f95efc
_symmetry_space_group_name_H-M   P-42_1c
_cell_length_a   11.51451514
_cell_length_b   11.51451514
_cell_length_c   7.57642423
_cell_angle_alpha   90.00000000
_cell_angle_beta   90.00000000
_cell_angle_gamma   90.00000000
_symmetry_Int_Tables_number   114
_chemical_formula_moiety   'C6 H6 O'
_chemical_formula_sum   'H48 C48 O8'
_cell_volume   1004.51307634
_cell_formula_units_Z   8
loop_
 _symmetry_equiv_pos_site_id
 _symmetry_equiv_pos_as_xyz
  1  'x, y, z'
  2  'y, -x, -z'
  3  '-x, -y, z'
  4  '-y, x, -z'
  5  'x+1/2, -y+1/2, -z+1/2'
  6  'y+1/2, x+1/2, z+1/2'
  7  '-x+1/2, y+1/2, -z+1/2'
  8  '-y+1/2, -x+1/2, z+1/2'
loop_
 _atom_site_type_symbol
 _atom_site_label
 _atom_site_symmetry_multiplicity
 _atom_site_fract_x
 _atom_site_fract_y
 _atom_site_fract_z
 _atom_site_occupancy
  H  H0  8  -0.04290985  0.17238040  0.46257615  1
  H  H1  8  0.00040709  0.88069956  0.91328274  1
  H  H2  8  0.02031866  0.76571573  0.76067787  1
  H  H3  8  0.06156105  0.41334346  0.65202079  1
  H  H4  8  0.16035323  0.80060610  1.10051059  1
  H  H5  8  0.18107136  0.68694225  0.94374926  1
  C  C6  8  0.01621882  0.20352308  0.36181116  1
  C  C7  8  0.06586474  0.83049119  0.84123116  1
  C  C8  8  0.08642912  0.34826250  0.19261764  1
  C  C9  8  0.09715759  0.15749513  0.25178098  1
  C  C10  8  0.14164553  0.24889677  0.14486036  1
  C  C11  8  0.16735984  0.78043865  0.95937952  1
  O  O12  8  0.00948776  0.32161533  0.32748089  1
