###############################################################################################
#
# CIF file generated by modified CIFWriter class 
# in pymatgen (v2025.03.10) https://pymatgen.org/
#
###############################################################################################
data_PBE+MBD_tight_79dc55e1dcdfef4
_symmetry_space_group_name_H-M   Cmce
_cell_length_a   13.98351881
_cell_length_b   9.88955254
_cell_length_c   6.99644976
_cell_angle_alpha   90.00000000
_cell_angle_beta   90.00000000
_cell_angle_gamma   90.00000000
_symmetry_Int_Tables_number   64
_chemical_formula_moiety   'C6 H6 O'
_chemical_formula_sum   'H48 C48 O8'
_cell_volume   967.54424157
_cell_formula_units_Z   8
loop_
 _symmetry_equiv_pos_site_id
 _symmetry_equiv_pos_as_xyz
  1  'x, y, z'
  2  '-x, -y, -z+77/886'
  3  'x+1/2, -y, -z+260/443'
  4  '-x+1/2, y, z+1/2'
  5  '-x, -y, z'
  6  'x, y, -z+77/886'
  7  '-x+1/2, y, -z+260/443'
  8  'x+1/2, -y, z+1/2'
  9  'x, y+1/2, z+1/2'
  10  '-x, -y+1/2, -z+260/443'
  11  'x+1/2, -y+1/2, -z+77/886'
  12  '-x+1/2, y+1/2, z'
  13  '-x, -y+1/2, z+1/2'
  14  'x, y+1/2, -z+260/443'
  15  '-x+1/2, y+1/2, -z+77/886'
  16  'x+1/2, -y+1/2, z'
loop_
 _atom_site_type_symbol
 _atom_site_label
 _atom_site_symmetry_multiplicity
 _atom_site_fract_x
 _atom_site_fract_y
 _atom_site_fract_z
 _atom_site_occupancy
  H  H0  16  0.19837067  0.20484007  0.41662334  1
  H  H1  16  0.20085168  -0.00513584  -0.08387318  1
  H  H2  8  -0.05599757  0.13956815  0.04345388  1
  H  H3  8  0.10657510  0.48776153  0.04345388  1
  C  C4  8  0.01302631  0.18900050  0.04345388  1
  C  C5  8  0.10229109  0.37844969  0.04345388  1
  C  C6  8  0.10634562  0.15128764  0.04345388  1
  C  C7  8  0.16295530  0.27075582  0.04345388  1
  C  C8  8  0.19282413  0.05883161  0.04345388  1
  C  C9  8  0.24360895  0.19171791  0.54345388  1
  O  O10  8  0.00981815  0.32852441  0.04345388  1
