###############################################################################################
#
# CIF file generated by modified CIFWriter class 
# in pymatgen (v2025.03.10) https://pymatgen.org/
#
###############################################################################################
data_PBE+MBD_tight_7a79a5c0f90406f
_symmetry_space_group_name_H-M   Pban
_cell_length_a   9.93998985
_cell_length_b   13.96975541
_cell_length_c   7.28446654
_cell_angle_alpha   90.00000000
_cell_angle_beta   90.00000000
_cell_angle_gamma   90.00000000
_symmetry_Int_Tables_number   50
_chemical_formula_moiety   'C6 H6 O'
_chemical_formula_sum   'H48 C48 O8'
_cell_volume   1011.51539208
_cell_formula_units_Z   8
loop_
 _symmetry_equiv_pos_site_id
 _symmetry_equiv_pos_as_xyz
  1  'x, y, z'
  2  '-x, -y, z'
  3  'x, -y, -z'
  4  '-x, y, -z'
  5  '-x+1/2, -y+1/2, -z'
  6  'x+1/2, y+1/2, -z'
  7  '-x+1/2, y+1/2, z'
  8  'x+1/2, -y+1/2, z'
loop_
 _atom_site_type_symbol
 _atom_site_label
 _atom_site_symmetry_multiplicity
 _atom_site_fract_x
 _atom_site_fract_y
 _atom_site_fract_z
 _atom_site_occupancy
  H  H0  8  -0.00024186  0.28923148  0.62854997  1
  H  H1  8  0.00065698  0.29118207  0.87139104  1
  H  H2  8  0.01558868  0.10015515  0.25420779  1
  H  H3  8  0.12863610  0.44752317  0.25718547  1
  H  H4  8  0.21373050  0.19631927  0.62827198  1
  H  H5  8  0.21425800  0.19735877  0.87312854  1
  C  C6  8  0.06359170  0.30087243  0.74922660  1
  C  C7  8  0.12453012  0.09875804  0.25399661  1
  C  C8  8  0.14986534  0.39042795  0.74651230  1
  C  C9  8  0.18189643  0.48493690  0.74430001  1
  C  C10  8  0.19934941  0.24154939  0.75004571  1
  C  C11  8  0.22795832  0.16254483  0.25230328  1
  O  O12  8  0.17953893  0.00771193  0.25607219  1
