###############################################################################################
#
# CIF file generated by modified CIFWriter class 
# in pymatgen (v2025.03.10) https://pymatgen.org/
#
###############################################################################################
data_PBE+MBD_tight_7ad497ba4629f44
_symmetry_space_group_name_H-M   I-4
_cell_length_a   8.52944934
_cell_length_b   8.52944934
_cell_length_c   13.78970952
_cell_angle_alpha   90.00000000
_cell_angle_beta   90.00000000
_cell_angle_gamma   90.00000000
_symmetry_Int_Tables_number   82
_chemical_formula_moiety   'C6 H6 O'
_chemical_formula_sum   'H48 C48 O8'
_cell_volume   1003.22213535
_cell_formula_units_Z   8
loop_
 _symmetry_equiv_pos_site_id
 _symmetry_equiv_pos_as_xyz
  1  'x, y, z'
  2  'y+1/2, -x+1/2, -z+1/2'
  3  '-x, -y, z'
  4  '-y+1/2, x+1/2, -z+1/2'
  5  'x+1/2, y+1/2, z+1/2'
  6  'y, -x, -z'
  7  '-x+1/2, -y+1/2, z+1/2'
  8  '-y, x, -z'
loop_
 _atom_site_type_symbol
 _atom_site_label
 _atom_site_symmetry_multiplicity
 _atom_site_fract_x
 _atom_site_fract_y
 _atom_site_fract_z
 _atom_site_occupancy
  H  H0  8  0.00634092  0.25151018  0.54180162  1
  H  H1  8  0.00764713  0.24826305  0.04130159  1
  H  H2  8  0.10304675  0.35438630  0.31646674  1
  H  H3  8  0.10314513  0.14562241  0.81662297  1
  H  H4  8  0.10316542  0.14599233  0.31635436  1
  H  H5  8  0.10327712  0.35405658  0.81666170  1
  C  C6  8  0.11701839  0.25112598  0.58041686  1
  C  C7  8  0.11813128  0.24891648  0.08012242  1
  C  C8  8  0.15730252  0.25025702  0.28397271  1
  C  C9  8  0.15731940  0.24981465  0.78416389  1
  C  C10  8  0.16631348  0.25006490  0.67406964  1
  C  C11  8  0.16687062  0.25001275  0.17388678  1
  O  O12  8  0.24833022  0.74926528  0.97839714  1
