###############################################################################################
#
# CIF file generated by modified CIFWriter class 
# in pymatgen (v2025.03.10) https://pymatgen.org/
#
###############################################################################################
data_PBE+MBD_tight_7b729288951d84d
_symmetry_space_group_name_H-M   P4_322
_cell_length_a   9.32271318
_cell_length_b   9.32271318
_cell_length_c   13.43721560
_cell_angle_alpha   90.00000000
_cell_angle_beta   90.00000000
_cell_angle_gamma   90.00000000
_symmetry_Int_Tables_number   95
_chemical_formula_moiety   'C6 H6 O'
_chemical_formula_sum   'H48 C48 O8'
_cell_volume   1167.86846409
_cell_formula_units_Z   8
loop_
 _symmetry_equiv_pos_site_id
 _symmetry_equiv_pos_as_xyz
  1  'x, y, z'
  2  '-y, x, z+3/4'
  3  '-x, -y, z+1/2'
  4  'y, -x, z+1/4'
  5  'x, -y, -z+1/2'
  6  '-y, -x, -z+3/4'
  7  '-x, y, -z'
  8  'y, x, -z+1/4'
loop_
 _atom_site_type_symbol
 _atom_site_label
 _atom_site_symmetry_multiplicity
 _atom_site_fract_x
 _atom_site_fract_y
 _atom_site_fract_z
 _atom_site_occupancy
  H  H0  8  -0.06603398  0.35814319  0.92371291  1
  H  H1  8  -0.04187094  0.38188410  0.79324143  1
  H  H2  8  0.01982153  0.17084397  0.40185312  1
  H  H3  8  0.12199820  0.45659263  0.54320572  1
  H  H4  8  0.14563205  0.43212846  0.67372002  1
  H  H5  8  0.32695453  0.48141119  0.34937491  1
  C  C6  8  0.01408565  0.37012900  0.86452502  1
  C  C7  8  0.13079890  0.20076940  0.38976560  1
  C  C8  8  0.13300830  0.48765122  0.88535769  1
  C  C9  8  0.13438289  0.26025834  0.86555578  1
  C  C10  8  0.24142808  0.36603014  0.88383660  1
  C  C11  8  0.29810286  0.37008019  0.36104600  1
  O  O12  8  0.15287866  0.34629618  0.37546753  1
