###############################################################################################
#
# CIF file generated by modified CIFWriter class 
# in pymatgen (v2025.03.10) https://pymatgen.org/
#
###############################################################################################
data_PBE+MBD_tight_7e980876516db2d
_symmetry_space_group_name_H-M   Iba2
_cell_length_a   12.62292243
_cell_length_b   10.66544247
_cell_length_c   7.40863730
_cell_angle_alpha   90.00000000
_cell_angle_beta   90.00000000
_cell_angle_gamma   90.00000000
_symmetry_Int_Tables_number   45
_chemical_formula_moiety   'C6 H6 O'
_chemical_formula_sum   'H48 C48 O8'
_cell_volume   997.41782348
_cell_formula_units_Z   8
loop_
 _symmetry_equiv_pos_site_id
 _symmetry_equiv_pos_as_xyz
  1  'x, y, z'
  2  '-x, -y, z'
  3  'x, -y, z+1/2'
  4  '-x, y, z+1/2'
  5  'x+1/2, y+1/2, z+1/2'
  6  '-x+1/2, -y+1/2, z+1/2'
  7  'x+1/2, -y+1/2, z'
  8  '-x+1/2, y+1/2, z'
loop_
 _atom_site_type_symbol
 _atom_site_label
 _atom_site_symmetry_multiplicity
 _atom_site_fract_x
 _atom_site_fract_y
 _atom_site_fract_z
 _atom_site_occupancy
  H  H0  8  0.07423253  0.22138601  0.61315084  1
  H  H1  8  0.08730256  0.08865950  0.39249338  1
  H  H2  8  0.10919369  -0.00760779  0.20009101  1
  H  H3  8  0.11374823  0.28140516  0.20317328  1
  H  H4  8  0.11379273  0.47115715  0.44647931  1
  H  H5  8  0.12926498  0.18443816  0.00826116  1
  C  C6  8  0.12541030  0.28793536  0.68060106  1
  C  C7  8  0.13729065  0.07572726  0.27264985  1
  C  C8  8  0.14631132  0.45606247  0.86097457  1
  C  C9  8  0.15163225  0.19642455  0.15042305  1
  C  C10  8  0.23068109  0.31380214  0.68903935  1
  C  C11  8  0.24372634  0.42024780  0.80233992  1
  O  O12  8  0.07269314  0.37506248  0.78673845  1
