###############################################################################################
#
# CIF file generated by modified CIFWriter class 
# in pymatgen (v2025.03.10) https://pymatgen.org/
#
###############################################################################################
data_PBE+MBD_tight_7eed53aae9e9fd
_symmetry_space_group_name_H-M   P4_32_12
_cell_length_a   6.00651212
_cell_length_b   6.00651212
_cell_length_c   29.27071922
_cell_angle_alpha   90.00000000
_cell_angle_beta   90.00000000
_cell_angle_gamma   90.00000000
_symmetry_Int_Tables_number   96
_chemical_formula_moiety   'C6 H6 O'
_chemical_formula_sum   'H48 C48 O8'
_cell_volume   1056.03450766
_cell_formula_units_Z   8
loop_
 _symmetry_equiv_pos_site_id
 _symmetry_equiv_pos_as_xyz
  1  'x, y, z'
  2  '-y+1/2, x+1/2, z+3/4'
  3  '-x, -y, z+1/2'
  4  'y+1/2, -x+1/2, z+1/4'
  5  'x+1/2, -y+1/2, -z+1/4'
  6  '-y, -x, -z+1/2'
  7  '-x+1/2, y+1/2, -z+3/4'
  8  'y, x, -z'
loop_
 _atom_site_type_symbol
 _atom_site_label
 _atom_site_symmetry_multiplicity
 _atom_site_fract_x
 _atom_site_fract_y
 _atom_site_fract_z
 _atom_site_occupancy
  H  H0  8  -0.24220772  0.25628624  0.83947054  1
  H  H1  8  -0.06239119  0.72124694  0.72191727  1
  H  H2  8  -0.02930360  0.05100209  0.84199341  1
  H  H3  8  0.04760190  0.55769307  0.84100345  1
  H  H4  8  0.06576394  -0.25569070  0.03052164  1
  H  H5  8  0.14661934  0.76068505  0.59342347  1
  C  C6  8  -0.14467228  0.17926875  0.95193880  1
  C  C7  8  -0.08706772  0.22449674  0.90801197  1
  C  C8  8  -0.08517315  0.21059023  0.85616790  1
  C  C9  8  0.05102028  0.61433728  0.70331669  1
  C  C10  8  0.07690029  0.39497271  0.90889284  1
  C  C11  8  0.09749181  0.40064192  0.85716769  1
  O  O12  8  -0.02242190  0.31774120  0.98021147  1
