###############################################################################################
#
# CIF file generated by modified CIFWriter class 
# in pymatgen (v2025.03.10) https://pymatgen.org/
#
###############################################################################################
data_PBE+MBD_tight_811850b5b9834bb
_symmetry_space_group_name_H-M   P4_2/n
_cell_length_a   13.23381342
_cell_length_b   13.23381342
_cell_length_c   5.53440637
_cell_angle_alpha   90.00000000
_cell_angle_beta   90.00000000
_cell_angle_gamma   90.00000000
_symmetry_Int_Tables_number   86
_chemical_formula_moiety   'C6 H6 O'
_chemical_formula_sum   'H48 C48 O8'
_cell_volume   969.26171616
_cell_formula_units_Z   8
loop_
 _symmetry_equiv_pos_site_id
 _symmetry_equiv_pos_as_xyz
  1  'x, y, z'
  2  '-y+1/2, x+1/2, z+1/2'
  3  '-x, -y, z'
  4  'y+1/2, -x+1/2, z+1/2'
  5  '-x+1/2, -y+1/2, -z+1/2'
  6  'y, -x, -z'
  7  'x+1/2, y+1/2, -z+1/2'
  8  '-y, x, -z'
loop_
 _atom_site_type_symbol
 _atom_site_label
 _atom_site_symmetry_multiplicity
 _atom_site_fract_x
 _atom_site_fract_y
 _atom_site_fract_z
 _atom_site_occupancy
  H  H0  8  0.04033685  0.42472892  0.34510358  1
  H  H1  8  0.04071439  0.17490543  -0.06090116  1
  H  H2  8  0.07131641  0.83770952  0.41899678  1
  H  H3  8  0.07456932  0.66335993  0.71089608  1
  H  H4  8  0.11673565  0.36211108  0.73278754  1
  H  H5  8  0.13840155  0.73795630  1.09303215  1
  C  C6  8  0.07381402  0.19001496  0.11443828  1
  C  C7  8  0.09796529  0.27164852  0.25201209  1
  C  C8  8  0.11088218  0.38181169  0.32375712  1
  C  C9  8  0.13321314  0.86002679  0.53537266  1
  C  C10  8  0.13980559  0.23582856  0.47258164  1
  C  C11  8  0.15832112  0.34163401  0.56830449  1
  O  O12  8  0.09922846  0.10425971  0.24488470  1
