###############################################################################################
#
# CIF file generated by modified CIFWriter class 
# in pymatgen (v2025.03.10) https://pymatgen.org/
#
###############################################################################################
data_PBE+MBD_tight_81d0d96dc957884
_symmetry_space_group_name_H-M   P-42c
_cell_length_a   12.08999387
_cell_length_b   12.08999387
_cell_length_c   7.10217374
_cell_angle_alpha   90.00000000
_cell_angle_beta   90.00000000
_cell_angle_gamma   90.00000000
_symmetry_Int_Tables_number   112
_chemical_formula_moiety   'C6 H6 O'
_chemical_formula_sum   'H48 C48 O8'
_cell_volume   1038.11018826
_cell_formula_units_Z   8
loop_
 _symmetry_equiv_pos_site_id
 _symmetry_equiv_pos_as_xyz
  1  'x, y, z'
  2  'y, -x, -z'
  3  '-x, -y, z'
  4  '-y, x, -z'
  5  'x, -y, -z+1/2'
  6  'y, x, z+1/2'
  7  '-x, y, -z+1/2'
  8  '-y, -x, z+1/2'
loop_
 _atom_site_type_symbol
 _atom_site_label
 _atom_site_symmetry_multiplicity
 _atom_site_fract_x
 _atom_site_fract_y
 _atom_site_fract_z
 _atom_site_occupancy
  H  H0  8  0.07749223  0.09230982  0.39542787  1
  H  H1  8  0.09493832  0.39849960  0.58753573  1
  H  H2  8  0.10581951  0.41676922  0.33749796  1
  H  H3  8  0.13434199  0.41353198  -0.02992982  1
  H  H4  8  0.29810574  0.42984670  0.61874958  1
  H  H5  8  0.31023166  0.44230355  0.36845638  1
  C  C6  8  0.14290560  0.37706365  0.46142406  1
  C  C7  8  0.14502230  0.14832781  -0.07955710  1
  C  C8  8  0.16734716  0.25487538  0.44210641  1
  C  C9  8  0.16829608  0.33100336  -0.04124127  1
  C  C10  8  0.26985547  0.28297069  -0.03440507  1
  C  C11  8  0.27231076  0.39454744  0.48318772  1
  O  O12  8  0.09087081  0.24866624  -0.06942013  1
