###############################################################################################
#
# CIF file generated by modified CIFWriter class 
# in pymatgen (v2025.03.10) https://pymatgen.org/
#
###############################################################################################
data_PBE+MBD_tight_85219b8a3c775a0
_symmetry_space_group_name_H-M   Aea2
_cell_length_a   23.22972897
_cell_length_b   10.22626126
_cell_length_c   4.19967798
_cell_angle_alpha   90.00000000
_cell_angle_beta   90.00000000
_cell_angle_gamma   90.00000000
_symmetry_Int_Tables_number   41
_chemical_formula_moiety   'C6 H6 O'
_chemical_formula_sum   'H48 C48 O8'
_cell_volume   997.64726805
_cell_formula_units_Z   8
loop_
 _symmetry_equiv_pos_site_id
 _symmetry_equiv_pos_as_xyz
  1  'x, y, z'
  2  '-x, -y, z'
  3  '-x+1/2, y+1/2, z'
  4  'x+1/2, -y+1/2, z'
  5  'x, y+1/2, z+1/2'
  6  '-x, -y+1/2, z+1/2'
  7  '-x+1/2, y, z+1/2'
  8  'x+1/2, -y, z+1/2'
loop_
 _atom_site_type_symbol
 _atom_site_label
 _atom_site_symmetry_multiplicity
 _atom_site_fract_x
 _atom_site_fract_y
 _atom_site_fract_z
 _atom_site_occupancy
  H  H0  8  0.04613726  0.84212648  0.82597581  1
  H  H1  8  0.06138189  0.43978049  0.81337213  1
  H  H2  8  0.17402215  0.79174103  0.21101157  1
  H  H3  8  0.18028856  0.54932660  0.19175143  1
  H  H4  8  0.21146283  0.79308661  0.58370703  1
  H  H5  8  0.21971628  0.54920021  0.55846958  1
  C  C6  8  0.07011797  0.75492126  0.76521095  1
  C  C7  8  0.07821592  0.53555704  0.75577333  1
  C  C8  8  0.12065270  0.72497779  0.61909294  1
  C  C9  8  0.12558188  0.58640423  0.61217670  1
  C  C10  8  0.17741685  0.74469298  0.44526531  1
  C  C11  8  0.18231783  0.59007405  0.43334327  1
  O  O12  8  0.04381611  0.63887935  0.85078844  1
