###############################################################################################
#
# CIF file generated by modified CIFWriter class 
# in pymatgen (v2025.03.10) https://pymatgen.org/
#
###############################################################################################
data_PBE+MBD_tight_8d04cc03af7308f
_symmetry_space_group_name_H-M   Pbca
_cell_length_a   12.41483104
_cell_length_b   9.20571114
_cell_length_c   8.82980046
_cell_angle_alpha   90.00000000
_cell_angle_beta   90.00000000
_cell_angle_gamma   90.00000000
_symmetry_Int_Tables_number   61
_chemical_formula_moiety   'C6 H6 O'
_chemical_formula_sum   'H48 C48 O8'
_cell_volume   1009.13448146
_cell_formula_units_Z   8
loop_
 _symmetry_equiv_pos_site_id
 _symmetry_equiv_pos_as_xyz
  1  'x, y, z'
  2  '-x, -y, -z'
  3  '-x, y+1/2, -z+1/2'
  4  'x, -y+1/2, z+1/2'
  5  '-x+1/2, -y, z+1/2'
  6  'x+1/2, y, -z+1/2'
  7  'x+1/2, -y+1/2, -z'
  8  '-x+1/2, y+1/2, z'
loop_
 _atom_site_type_symbol
 _atom_site_label
 _atom_site_symmetry_multiplicity
 _atom_site_fract_x
 _atom_site_fract_y
 _atom_site_fract_z
 _atom_site_occupancy
  H  H0  8  -0.02594870  -0.06678227  0.37481433  1
  H  H1  8  0.06166157  -0.17917059  -0.04275217  1
  H  H2  8  0.16630503  -0.25292972  0.07191214  1
  H  H3  8  0.16641095  0.22125858  0.74691734  1
  H  H4  8  0.18143928  0.02409624  -0.11872988  1
  H  H5  8  0.21400877  0.45646054  -0.00075171  1
  C  C6  8  0.03126309  -0.01806015  0.29736021  1
  C  C7  8  0.08635395  -0.05841310  0.17126903  1
  C  C8  8  0.12418052  -0.15262204  0.04042119  1
  C  C9  8  0.13597797  0.17006484  0.22768075  1
  C  C10  8  0.15261650  0.06049282  0.12738397  1
  C  C11  8  0.19931987  -0.02131309  -0.00672744  1
  O  O12  8  0.06095656  0.12310017  0.33302802  1
