###############################################################################################
#
# CIF file generated by modified CIFWriter class 
# in pymatgen (v2025.03.10) https://pymatgen.org/
#
###############################################################################################
data_PBE+MBD_tight_927e1806071917d
_symmetry_space_group_name_H-M   P4_322
_cell_length_a   7.72061543
_cell_length_b   7.72061543
_cell_length_c   16.59867916
_cell_angle_alpha   90.00000000
_cell_angle_beta   90.00000000
_cell_angle_gamma   90.00000000
_symmetry_Int_Tables_number   95
_chemical_formula_moiety   'C6 H6 O'
_chemical_formula_sum   'H48 C48 O8'
_cell_volume   989.41245018
_cell_formula_units_Z   8
loop_
 _symmetry_equiv_pos_site_id
 _symmetry_equiv_pos_as_xyz
  1  'x, y, z'
  2  '-y, x, z+3/4'
  3  '-x, -y, z+1/2'
  4  'y, -x, z+1/4'
  5  'x, -y, -z+1/2'
  6  '-y, -x, -z+3/4'
  7  '-x, y, -z'
  8  'y, x, -z+1/4'
loop_
 _atom_site_type_symbol
 _atom_site_label
 _atom_site_symmetry_multiplicity
 _atom_site_fract_x
 _atom_site_fract_y
 _atom_site_fract_z
 _atom_site_occupancy
  H  H0  8  -0.02189479  0.24885013  0.92734423  1
  H  H1  8  0.09039232  0.13716469  0.69905698  1
  H  H2  8  0.09061072  0.36792319  0.69976494  1
  H  H3  8  0.13709983  0.41273660  0.54950061  1
  H  H4  8  0.24766902  0.48530565  0.17976182  1
  H  H5  8  0.36790527  0.41263372  0.54841567  1
  C  C6  8  0.10116289  0.24939111  0.89589642  1
  C  C7  8  0.14887577  0.25209769  0.72675391  1
  C  C8  8  0.15652586  0.74935072  0.68177294  1
  C  C9  8  0.24862495  0.39290631  0.35271882  1
  C  C10  8  0.25019305  0.65900553  0.06912482  1
  C  C11  8  0.25189308  0.35307473  0.52221029  1
  O  O12  8  0.24600333  0.24816533  0.94542329  1
