###############################################################################################
#
# CIF file generated by modified CIFWriter class 
# in pymatgen (v2025.03.10) https://pymatgen.org/
#
###############################################################################################
data_PBE+MBD_tight_94bdaffb567360b
_symmetry_space_group_name_H-M   I4_1
_cell_length_a   11.92634164
_cell_length_b   11.92634164
_cell_length_c   7.08571538
_cell_angle_alpha   90.00000000
_cell_angle_beta   90.00000000
_cell_angle_gamma   90.00000000
_symmetry_Int_Tables_number   80
_chemical_formula_moiety   'C6 H6 O'
_chemical_formula_sum   'H48 C48 O8'
_cell_volume   1007.85532634
_cell_formula_units_Z   8
loop_
 _symmetry_equiv_pos_site_id
 _symmetry_equiv_pos_as_xyz
  1  'x, y, z'
  2  '-y, x+1/2, z+1/4'
  3  '-x+1/2, -y+1/2, z+1/2'
  4  'y+1/2, -x, z+3/4'
  5  'x+1/2, y+1/2, z+1/2'
  6  '-y+1/2, x, z+3/4'
  7  '-x, -y, z'
  8  'y, -x+1/2, z+1/4'
loop_
 _atom_site_type_symbol
 _atom_site_label
 _atom_site_symmetry_multiplicity
 _atom_site_fract_x
 _atom_site_fract_y
 _atom_site_fract_z
 _atom_site_occupancy
  H  H0  8  -0.12128571  0.67526612  0.80087853  1
  H  H1  8  -0.11453075  0.69615818  0.24235226  1
  H  H2  8  -0.00870524  0.59463354  0.28762273  1
  H  H3  8  0.03228148  0.84144163  0.18890952  1
  H  H4  8  0.08145463  0.62100487  0.96156108  1
  H  H5  8  0.13942975  0.74132245  0.23659866  1
  C  C6  8  -0.06372709  0.71922886  0.70852508  1
  C  C7  8  -0.03528908  0.68099339  0.31706672  1
  C  C8  8  -0.03381748  0.71554487  0.52350398  1
  C  C9  8  0.04923123  0.79914468  0.49294178  1
  C  C10  8  0.05791166  0.77354559  0.28381760  1
  C  C11  8  0.06836949  0.85133601  0.66011862  1
  O  O12  8  -0.00071847  0.80268393  0.79436232  1
