###############################################################################################
#
# CIF file generated by modified CIFWriter class 
# in pymatgen (v2025.03.10) https://pymatgen.org/
#
###############################################################################################
data_PBE+MBD_tight_976feda48945af1
_symmetry_space_group_name_H-M   P42_12
_cell_length_a   12.65666107
_cell_length_b   12.65666107
_cell_length_c   7.00660462
_cell_angle_alpha   90.00000000
_cell_angle_beta   90.00000000
_cell_angle_gamma   90.00000000
_symmetry_Int_Tables_number   90
_chemical_formula_moiety   'C6 H6 O'
_chemical_formula_sum   'H48 C48 O8'
_cell_volume   1122.39548721
_cell_formula_units_Z   8
loop_
 _symmetry_equiv_pos_site_id
 _symmetry_equiv_pos_as_xyz
  1  'x, y, z'
  2  '-y+1/2, x+1/2, z'
  3  '-x, -y, z'
  4  'y+1/2, -x+1/2, z'
  5  'x+1/2, -y+1/2, -z'
  6  '-y, -x, -z'
  7  '-x+1/2, y+1/2, -z'
  8  'y, x, -z'
loop_
 _atom_site_type_symbol
 _atom_site_label
 _atom_site_symmetry_multiplicity
 _atom_site_fract_x
 _atom_site_fract_y
 _atom_site_fract_z
 _atom_site_occupancy
  H  H0  8  0.04289427  0.20393942  0.62324073  1
  H  H1  8  0.04396472  0.20443823  0.87890380  1
  H  H2  8  0.05803885  0.31255124  0.25083832  1
  H  H3  8  0.09636729  0.87234329  0.25227690  1
  H  H4  8  0.09802226  0.39250986  0.62131873  1
  H  H5  8  0.09835523  0.39326364  0.87645882  1
  C  C6  8  0.08734483  0.22845592  0.75031697  1
  C  C7  8  0.12202241  0.34866635  0.74921793  1
  C  C8  8  0.14145477  0.29309948  0.25095135  1
  C  C9  8  0.15756255  0.81250835  0.25169828  1
  C  C10  8  0.19056568  0.73532317  0.74886055  1
  C  C11  8  0.20153946  0.20424644  0.25065808  1
  O  O12  8  0.12083345  0.70937198  0.25162428  1
