###############################################################################################
#
# CIF file generated by modified CIFWriter class 
# in pymatgen (v2025.03.10) https://pymatgen.org/
#
###############################################################################################
data_PBE+MBD_tight_99dae69b730afe8
_symmetry_space_group_name_H-M   Pccn
_cell_length_a   7.16153800
_cell_length_b   23.33909258
_cell_length_c   5.96207831
_cell_angle_alpha   90.00000000
_cell_angle_beta   90.00000000
_cell_angle_gamma   90.00000000
_symmetry_Int_Tables_number   56
_chemical_formula_moiety   'C6 H6 O'
_chemical_formula_sum   'H48 C48 O8'
_cell_volume   996.52441542
_cell_formula_units_Z   8
loop_
 _symmetry_equiv_pos_site_id
 _symmetry_equiv_pos_as_xyz
  1  'x, y, z'
  2  '-x, -y, -z'
  3  '-x+1/2, -y+1/2, z'
  4  'x+1/2, y+1/2, -z'
  5  'x+1/2, -y, -z+1/2'
  6  '-x+1/2, y, z+1/2'
  7  '-x, y+1/2, -z+1/2'
  8  'x, -y+1/2, z+1/2'
loop_
 _atom_site_type_symbol
 _atom_site_label
 _atom_site_symmetry_multiplicity
 _atom_site_fract_x
 _atom_site_fract_y
 _atom_site_fract_z
 _atom_site_occupancy
  H  H0  8  -0.20499575  0.20078361  0.52870547  1
  H  H1  8  -0.16996538  0.08392732  1.01201938  1
  H  H2  8  -0.02069515  0.22851324  0.69783047  1
  H  H3  8  0.02755841  0.16488469  0.24970570  1
  H  H4  8  0.20962823  0.02381427  0.54428944  1
  H  H5  8  0.21367431  0.19113708  0.42052197  1
  C  C6  8  -0.08581459  0.09026087  0.86292813  1
  C  C7  8  -0.06696552  0.19128114  0.59975620  1
  C  C8  8  -0.05091190  0.13331113  0.71469354  1
  C  C9  8  0.07902221  0.11250562  0.55384255  1
  C  C10  8  0.07979149  0.16813969  0.42253058  1
  C  C11  8  0.12005737  0.05739928  0.60775897  1
  O  O12  8  0.01921941  0.04340638  0.79764638  1
