###############################################################################################
#
# CIF file generated by modified CIFWriter class 
# in pymatgen (v2025.03.10) https://pymatgen.org/
#
###############################################################################################
data_PBE+MBD_tight_99dba4c0e518f5f
_symmetry_space_group_name_H-M   P4_12_12
_cell_length_a   6.46220871
_cell_length_b   6.46220871
_cell_length_c   25.19772091
_cell_angle_alpha   90.00000000
_cell_angle_beta   90.00000000
_cell_angle_gamma   90.00000000
_symmetry_Int_Tables_number   92
_chemical_formula_moiety   'C6 H6 O'
_chemical_formula_sum   'H48 C48 O8'
_cell_volume   1052.26038744
_cell_formula_units_Z   8
loop_
 _symmetry_equiv_pos_site_id
 _symmetry_equiv_pos_as_xyz
  1  'x, y, z'
  2  '-y+1/2, x+1/2, z+1/4'
  3  '-x, -y, z+1/2'
  4  'y+1/2, -x+1/2, z+3/4'
  5  'x+1/2, -y+1/2, -z+3/4'
  6  '-y, -x, -z+1/2'
  7  '-x+1/2, y+1/2, -z+1/4'
  8  'y, x, -z'
loop_
 _atom_site_type_symbol
 _atom_site_label
 _atom_site_symmetry_multiplicity
 _atom_site_fract_x
 _atom_site_fract_y
 _atom_site_fract_z
 _atom_site_occupancy
  H  H0  8  -0.18192786  0.81466174  0.05807079  1
  H  H1  8  -0.14644376  0.21474174  0.09561801  1
  H  H2  8  -0.00071595  0.33763578  0.14705755  1
  H  H3  8  0.11451058  0.18399853  0.94934825  1
  H  H4  8  0.12856853  1.14976369  0.26204353  1
  H  H5  8  0.17372891  0.73245033  0.14655849  1
  C  C6  8  -0.11408206  0.74409178  0.26444077  1
  C  C7  8  -0.05744331  0.70457899  0.05279902  1
  C  C8  8  -0.01426727  0.31647234  0.10394620  1
  C  C9  8  -0.00406892  0.51455499  0.07146104  1
  C  C10  8  0.04269630  0.68631475  0.29715263  1
  C  C11  8  0.19554833  0.25160267  0.07611032  1
  O  O12  8  0.09443949  0.76725038  0.01748334  1
