###############################################################################################
#
# CIF file generated by modified CIFWriter class 
# in pymatgen (v2025.03.10) https://pymatgen.org/
#
###############################################################################################
data_PBE+MBD_tight_9a99e8b3bc4b11e
_symmetry_space_group_name_H-M   Pbcn
_cell_length_a   9.87560602
_cell_length_b   10.14408849
_cell_length_c   9.58070089
_cell_angle_alpha   90.00000000
_cell_angle_beta   90.00000000
_cell_angle_gamma   90.00000000
_symmetry_Int_Tables_number   60
_chemical_formula_moiety   'C6 H6 O'
_chemical_formula_sum   'H48 C48 O8'
_cell_volume   959.78523856
_cell_formula_units_Z   8
loop_
 _symmetry_equiv_pos_site_id
 _symmetry_equiv_pos_as_xyz
  1  'x, y, z'
  2  '-x, -y, -z'
  3  '-x+1/2, -y+1/2, z+1/2'
  4  'x+1/2, y+1/2, -z+1/2'
  5  'x+1/2, -y+1/2, -z'
  6  '-x+1/2, y+1/2, z'
  7  '-x, y, -z+1/2'
  8  'x, -y, z+1/2'
loop_
 _atom_site_type_symbol
 _atom_site_label
 _atom_site_symmetry_multiplicity
 _atom_site_fract_x
 _atom_site_fract_y
 _atom_site_fract_z
 _atom_site_occupancy
  H  H0  8  -0.01481410  0.15952341  1.01383675  1
  H  H1  8  0.00556317  0.28172739  0.88192289  1
  H  H2  8  0.02134726  0.42696477  0.38299954  1
  H  H3  8  0.12495190  -0.04210054  0.68703213  1
  H  H4  8  0.20027637  0.23980101  1.12840355  1
  H  H5  8  0.22130464  0.35637679  0.99184894  1
  C  C6  8  0.05845562  0.20601480  0.94296578  1
  C  C7  8  0.12988379  0.41884429  0.36974733  1
  C  C8  8  0.14493706  0.11088114  0.85927283  1
  C  C9  8  0.17750253  0.01683876  0.76405006  1
  C  C10  8  0.19442080  0.25376501  1.01494559  1
  C  C11  8  0.23335609  0.34812663  0.42573795  1
  O  O12  8  0.18378021  0.49743782  0.76959918  1
