###############################################################################################
#
# CIF file generated by modified CIFWriter class 
# in pymatgen (v2025.03.10) https://pymatgen.org/
#
###############################################################################################
data_PBE+MBD_tight_a28879cda65253c
_symmetry_space_group_name_H-M   P4_22_12
_cell_length_a   10.24730910
_cell_length_b   10.24730910
_cell_length_c   9.63044891
_cell_angle_alpha   90.00000000
_cell_angle_beta   90.00000000
_cell_angle_gamma   90.00000000
_symmetry_Int_Tables_number   94
_chemical_formula_moiety   'C6 H6 O'
_chemical_formula_sum   'H48 C48 O8'
_cell_volume   1011.26785932
_cell_formula_units_Z   8
loop_
 _symmetry_equiv_pos_site_id
 _symmetry_equiv_pos_as_xyz
  1  'x, y, z'
  2  '-y+1/2, x+1/2, z+1/2'
  3  '-x, -y, z'
  4  'y+1/2, -x+1/2, z+1/2'
  5  'x+1/2, -y+1/2, -z+1/2'
  6  '-y, -x, -z'
  7  '-x+1/2, y+1/2, -z+1/2'
  8  'y, x, -z'
loop_
 _atom_site_type_symbol
 _atom_site_label
 _atom_site_symmetry_multiplicity
 _atom_site_fract_x
 _atom_site_fract_y
 _atom_site_fract_z
 _atom_site_occupancy
  H  H0  8  -0.00576598  0.63826884  0.88098790  1
  H  H1  8  0.00522499  0.39768307  0.56728023  1
  H  H2  8  0.08550727  -0.12401238  0.64114341  1
  H  H3  8  0.10491491  0.76854918  0.91637147  1
  H  H4  8  0.11828345  0.25486764  0.06723567  1
  H  H5  8  0.13086507  0.28002517  0.59229335  1
  C  C6  8  -0.05058935  0.15692643  0.33114292  1
  C  C7  8  0.02079901  0.25037893  0.39653063  1
  C  C8  8  0.07499906  0.33403755  0.51372951  1
  C  C9  8  0.08193699  0.24830513  0.17254731  1
  C  C10  8  0.09706289  0.66298850  0.89992118  1
  C  C11  8  0.10387073  0.30885360  0.29578271  1
  O  O12  8  -0.01374504  0.15507499  0.19298941  1
