###############################################################################################
#
# CIF file generated by modified CIFWriter class 
# in pymatgen (v2025.03.10) https://pymatgen.org/
#
###############################################################################################
data_PBE+MBD_tight_a9defee919e434
_symmetry_space_group_name_H-M   Pbca
_cell_length_a   12.56250842
_cell_length_b   14.27600943
_cell_length_c   5.35066191
_cell_angle_alpha   90.00000000
_cell_angle_beta   90.00000000
_cell_angle_gamma   90.00000000
_symmetry_Int_Tables_number   61
_chemical_formula_moiety   'C6 H6 O'
_chemical_formula_sum   'H48 C48 O8'
_cell_volume   959.60102327
_cell_formula_units_Z   8
loop_
 _symmetry_equiv_pos_site_id
 _symmetry_equiv_pos_as_xyz
  1  'x, y, z'
  2  '-x, -y, -z'
  3  '-x, y+1/2, -z+1/2'
  4  'x, -y+1/2, z+1/2'
  5  '-x+1/2, -y, z+1/2'
  6  'x+1/2, y, -z+1/2'
  7  'x+1/2, -y+1/2, -z'
  8  '-x+1/2, y+1/2, z'
loop_
 _atom_site_type_symbol
 _atom_site_label
 _atom_site_symmetry_multiplicity
 _atom_site_fract_x
 _atom_site_fract_y
 _atom_site_fract_z
 _atom_site_occupancy
  H  H0  8  -0.08177621  0.61209357  -0.11615386  1
  H  H1  8  -0.06274135  0.71838252  0.05299343  1
  H  H2  8  -0.03332267  0.52045791  0.26513138  1
  H  H3  8  -0.01506228  0.62666113  0.43427201  1
  H  H4  8  0.20321414  0.70060606  -0.34798773  1
  H  H5  8  0.21851774  0.05074784  0.29021116  1
  C  C6  8  -0.02902817  0.64884541  0.01490036  1
  C  C7  8  0.00141846  0.59093263  0.25702589  1
  C  C8  8  0.08898817  0.64744931  -0.05004386  1
  C  C9  8  0.11592722  0.59569952  0.16812853  1
  C  C10  8  0.18066507  0.66564327  -0.17622620  1
  C  C11  8  0.22317628  0.58383391  0.17024108  1
  O  O12  8  0.23597404  0.12678862  -0.04160085  1
