###############################################################################################
#
# CIF file generated by modified CIFWriter class 
# in pymatgen (v2025.03.10) https://pymatgen.org/
#
###############################################################################################
data_PBE+MBD_tight_ace6d2efcdbd664
_symmetry_space_group_name_H-M   P4_32_12
_cell_length_a   11.57048231
_cell_length_b   11.57048231
_cell_length_c   7.65899355
_cell_angle_alpha   90.00000000
_cell_angle_beta   90.00000000
_cell_angle_gamma   90.00000000
_symmetry_Int_Tables_number   96
_chemical_formula_moiety   'C6 H6 O'
_chemical_formula_sum   'H48 C48 O8'
_cell_volume   1025.35588726
_cell_formula_units_Z   8
loop_
 _symmetry_equiv_pos_site_id
 _symmetry_equiv_pos_as_xyz
  1  'x, y, z'
  2  '-y+1/2, x+1/2, z+3/4'
  3  '-x, -y, z+1/2'
  4  'y+1/2, -x+1/2, z+1/4'
  5  'x+1/2, -y+1/2, -z+1/4'
  6  '-y, -x, -z+1/2'
  7  '-x+1/2, y+1/2, -z+3/4'
  8  'y, x, -z'
loop_
 _atom_site_type_symbol
 _atom_site_label
 _atom_site_symmetry_multiplicity
 _atom_site_fract_x
 _atom_site_fract_y
 _atom_site_fract_z
 _atom_site_occupancy
  H  H0  8  -0.12890435  0.34308189  0.41946028  1
  H  H1  8  -0.03865760  0.09494433  0.39712647  1
  H  H2  8  -0.01236477  0.29627289  0.28512553  1
  H  H3  8  0.05062088  0.64847100  0.43196249  1
  H  H4  8  0.11341036  0.11356869  0.86017420  1
  H  H5  8  0.14427134  -0.15308920  0.46481882  1
  C  C6  8  -0.06591956  0.16328658  0.48758286  1
  C  C7  8  -0.05002766  0.29061524  0.41635470  1
  C  C8  8  0.02106233  0.19423323  0.62820243  1
  C  C9  8  0.03422011  0.30917124  0.56575299  1
  C  C10  8  0.08984509  0.18204732  0.77060606  1
  C  C11  8  0.11020257  0.36422021  0.67226361  1
  O  O12  8  0.14509441  0.28656021  0.79980981  1
