###############################################################################################
#
# CIF file generated by modified CIFWriter class 
# in pymatgen (v2025.03.10) https://pymatgen.org/
#
###############################################################################################
data_PBE+MBD_tight_aee2a6b41d7a5bc
_symmetry_space_group_name_H-M   C2/c
_cell_length_a   12.85513599
_cell_length_b   5.28156817
_cell_length_c   14.47534058
_cell_angle_alpha   90.00000000
_cell_angle_beta   96.48848967
_cell_angle_gamma   90.00000000
_symmetry_Int_Tables_number   15
_chemical_formula_moiety   'C6 H6 O'
_chemical_formula_sum   'H48 C48 O8'
_cell_volume   976.51196341
_cell_formula_units_Z   8
loop_
 _symmetry_equiv_pos_site_id
 _symmetry_equiv_pos_as_xyz
  1  'x, y, z'
  2  '-x, -y, -z'
  3  '-x, y, -z+1/2'
  4  'x, -y, z+1/2'
  5  'x+1/2, y+1/2, z'
  6  '-x+1/2, -y+1/2, -z'
  7  '-x+1/2, y+1/2, -z+1/2'
  8  'x+1/2, -y+1/2, z+1/2'
loop_
 _atom_site_type_symbol
 _atom_site_label
 _atom_site_symmetry_multiplicity
 _atom_site_fract_x
 _atom_site_fract_y
 _atom_site_fract_z
 _atom_site_occupancy
  H  H0  8  0.07704308  0.55943917  0.60752817  1
  H  H1  8  0.08686215  0.57166638  0.78058534  1
  H  H2  8  0.09790478  0.61884684  0.00622526  1
  H  H3  8  0.10509319  0.16019195  0.70331425  1
  H  H4  8  0.12250367  1.01016500  0.10047335  1
  H  H5  8  0.13010266  1.23504943  0.93241966  1
  C  C6  8  0.12633541  0.58515465  0.07957282  1
  C  C7  8  0.13731135  0.29476607  0.32075984  1
  C  C8  8  0.14327476  0.16397947  0.63934616  1
  C  C9  8  0.16093284  1.06507906  0.90377382  1
  C  C10  8  0.24124831  0.27107959  0.34845133  1
  C  C11  8  0.24380108  0.54407925  0.09893467  1
  O  O12  8  0.08667898  0.91175665  0.85439793  1
