###############################################################################################
#
# CIF file generated by modified CIFWriter class 
# in pymatgen (v2025.03.10) https://pymatgen.org/
#
###############################################################################################
data_PBE+MBD_tight_af482e61e9c320b
_symmetry_space_group_name_H-M   I4
_cell_length_a   12.68464541
_cell_length_b   12.68464541
_cell_length_c   6.70035088
_cell_angle_alpha   90.00000000
_cell_angle_beta   90.00000000
_cell_angle_gamma   90.00000000
_symmetry_Int_Tables_number   79
_chemical_formula_moiety   'C6 H6 O'
_chemical_formula_sum   'H48 C48 O8'
_cell_volume   1078.08799363
_cell_formula_units_Z   8
loop_
 _symmetry_equiv_pos_site_id
 _symmetry_equiv_pos_as_xyz
  1  'x, y, z'
  2  '-y, x, z'
  3  '-x, -y, z'
  4  'y, -x, z'
  5  'x+1/2, y+1/2, z+1/2'
  6  '-y+1/2, x+1/2, z+1/2'
  7  '-x+1/2, -y+1/2, z+1/2'
  8  'y+1/2, -x+1/2, z+1/2'
loop_
 _atom_site_type_symbol
 _atom_site_label
 _atom_site_symmetry_multiplicity
 _atom_site_fract_x
 _atom_site_fract_y
 _atom_site_fract_z
 _atom_site_occupancy
  H  H0  8  -0.16866130  0.26776999  0.50442141  1
  H  H1  8  -0.11312418  0.37677613  -0.04294427  1
  H  H2  8  -0.07010205  0.36478246  0.54950331  1
  H  H3  8  -0.03389474  0.12617695  0.53528383  1
  H  H4  8  0.06529385  0.22247974  0.57991027  1
  H  H5  8  0.10963647  0.14033535  0.01064042  1
  C  C6  8  -0.08808213  0.29228882  0.46681718  1
  C  C7  8  -0.06919606  0.32191001  0.04889533  1
  C  C8  8  -0.06290418  0.29459111  0.24488183  1
  C  C9  8  -0.00240707  0.20229643  0.48566826  1
  C  C10  8  0.01388260  0.21323809  0.26213895  1
  C  C11  8  0.05229098  0.19305321  0.07676192  1
  O  O12  8  0.00162370  0.25967017  -0.05584218  1
