###############################################################################################
#
# CIF file generated by modified CIFWriter class 
# in pymatgen (v2025.03.10) https://pymatgen.org/
#
###############################################################################################
data_PBE+MBD_tight_af9cce730230555
_symmetry_space_group_name_H-M   I222
_cell_length_a   10.53504171
_cell_length_b   25.85755135
_cell_length_c   3.96231352
_cell_angle_alpha   90.00000000
_cell_angle_beta   90.00000000
_cell_angle_gamma   90.00000000
_symmetry_Int_Tables_number   23
_chemical_formula_moiety   'C6 H6 O'
_chemical_formula_sum   'H48 C48 O8'
_cell_volume   1079.37533975
_cell_formula_units_Z   8
loop_
 _symmetry_equiv_pos_site_id
 _symmetry_equiv_pos_as_xyz
  1  'x, y, z'
  2  '-x, y, -z'
  3  '-x, -y, z'
  4  'x, -y, -z'
  5  'x+1/2, y+1/2, z+1/2'
  6  '-x+1/2, y+1/2, -z+1/2'
  7  '-x+1/2, -y+1/2, z+1/2'
  8  'x+1/2, -y+1/2, -z+1/2'
loop_
 _atom_site_type_symbol
 _atom_site_label
 _atom_site_symmetry_multiplicity
 _atom_site_fract_x
 _atom_site_fract_y
 _atom_site_fract_z
 _atom_site_occupancy
  H  H0  8  -0.02621801  0.68655667  0.56425110  1
  H  H1  8  0.10293282  0.42703046  0.24453664  1
  H  H2  8  0.13328343  0.05352611  1.05105468  1
  H  H3  8  0.15430882  0.59337730  0.34690551  1
  H  H4  8  0.18288809  0.72447991  0.84435502  1
  H  H5  8  0.18433720  0.03263119  0.64371612  1
  C  C6  8  0.06440844  0.84550726  0.44450026  1
  C  C7  8  0.14405617  0.11712450  0.67778576  1
  C  C8  8  0.18143824  0.59062665  0.61361004  1
  C  C9  8  0.18377464  0.06530124  0.82114769  1
  C  C10  8  0.23622141  0.35995831  0.23824288  1
  C  C11  8  0.24429866  0.69090742  0.84761182  1
  O  O12  8  0.13369559  0.20008551  0.53758200  1
