###############################################################################################
#
# CIF file generated by modified CIFWriter class 
# in pymatgen (v2025.03.10) https://pymatgen.org/
#
###############################################################################################
data_PBE+MBD_tight_b08b7087bd96f21
_symmetry_space_group_name_H-M   Pccn
_cell_length_a   9.47141514
_cell_length_b   8.15507913
_cell_length_c   12.74148866
_cell_angle_alpha   90.00000000
_cell_angle_beta   90.00000000
_cell_angle_gamma   90.00000000
_symmetry_Int_Tables_number   56
_chemical_formula_moiety   'C6 H6 O'
_chemical_formula_sum   'H48 C48 O8'
_cell_volume   984.15436718
_cell_formula_units_Z   8
loop_
 _symmetry_equiv_pos_site_id
 _symmetry_equiv_pos_as_xyz
  1  'x, y, z'
  2  '-x, -y, -z'
  3  '-x+1/2, -y+1/2, z'
  4  'x+1/2, y+1/2, -z'
  5  '-x, y+1/2, -z+1/2'
  6  'x, -y+1/2, z+1/2'
  7  'x+1/2, -y, -z+1/2'
  8  '-x+1/2, y, z+1/2'
loop_
 _atom_site_type_symbol
 _atom_site_label
 _atom_site_symmetry_multiplicity
 _atom_site_fract_x
 _atom_site_fract_y
 _atom_site_fract_z
 _atom_site_occupancy
  H  H0  8  -0.02560566  0.08339945  0.67969712  1
  H  H1  8  0.02469571  0.20744496  0.46147031  1
  H  H2  8  0.12504694  0.21248095  0.66348232  1
  H  H3  8  0.13216044  -0.16095375  0.69349320  1
  H  H4  8  0.21695843  -0.03117036  0.17967533  1
  H  H5  8  0.22123638  -0.11666291  0.48580757  1
  C  C6  8  0.07715841  0.18869090  0.92567796  1
  C  C7  8  0.08091438  0.11050763  0.70910811  1
  C  C8  8  0.09343798  0.12586312  0.82770787  1
  C  C9  8  0.18028357  -0.04500113  0.71853333  1
  C  C10  8  0.18114631  -0.01501814  0.83617659  1
  C  C11  8  0.21568311  -0.03358188  0.93897398  1
  O  O12  8  0.15147268  0.09124031  0.99489991  1
