###############################################################################################
#
# CIF file generated by modified CIFWriter class 
# in pymatgen (v2025.03.10) https://pymatgen.org/
#
###############################################################################################
data_PBE+MBD_tight_b1523f2f97494f7
_symmetry_space_group_name_H-M   Pbca
_cell_length_a   8.13188508
_cell_length_b   10.04985813
_cell_length_c   11.88555555
_cell_angle_alpha   90.00000000
_cell_angle_beta   90.00000000
_cell_angle_gamma   90.00000000
_symmetry_Int_Tables_number   61
_chemical_formula_moiety   'C6 H6 O'
_chemical_formula_sum   'H48 C48 O8'
_cell_volume   971.33860518
_cell_formula_units_Z   8
loop_
 _symmetry_equiv_pos_site_id
 _symmetry_equiv_pos_as_xyz
  1  'x, y, z'
  2  '-x, -y, -z'
  3  '-x+1/2, -y, z+1/2'
  4  'x+1/2, y, -z+1/2'
  5  'x+1/2, -y+1/2, -z'
  6  '-x+1/2, y+1/2, z'
  7  '-x, y+1/2, -z+1/2'
  8  'x, -y+1/2, z+1/2'
loop_
 _atom_site_type_symbol
 _atom_site_label
 _atom_site_symmetry_multiplicity
 _atom_site_fract_x
 _atom_site_fract_y
 _atom_site_fract_z
 _atom_site_occupancy
  H  H0  8  -0.03536189  0.58273660  0.18129970  1
  H  H1  8  0.02220929  0.17916021  0.52781081  1
  H  H2  8  0.07771587  0.69195875  0.72060967  1
  H  H3  8  0.12272971  0.50792272  0.26285737  1
  H  H4  8  0.21748101  -0.04785723  -0.04923790  1
  H  H5  8  0.23207280  0.73668130  0.30856799  1
  C  C6  8  0.09691877  0.58470372  0.19957129  1
  C  C7  8  0.10862890  0.24124951  0.04507451  1
  C  C8  8  0.16843519  0.72762454  0.22745736  1
  C  C9  8  0.21042115  0.58422205  0.09797415  1
  C  C10  8  0.21539548  0.04086671  0.00229635  1
  C  C11  8  0.22286243  0.21125222  0.12448813  1
  O  O12  8  0.10383557  0.13681207  -0.03114231  1
