###############################################################################################
#
# CIF file generated by modified CIFWriter class 
# in pymatgen (v2025.03.10) https://pymatgen.org/
#
###############################################################################################
data_PBE+MBD_tight_b2485ac076e4cc9
_symmetry_space_group_name_H-M   P4_12_12
_cell_length_a   6.53330170
_cell_length_b   6.53330170
_cell_length_c   25.77446998
_cell_angle_alpha   90.00000000
_cell_angle_beta   90.00000000
_cell_angle_gamma   90.00000000
_symmetry_Int_Tables_number   92
_chemical_formula_moiety   'C6 H6 O'
_chemical_formula_sum   'H48 C48 O8'
_cell_volume   1100.15827826
_cell_formula_units_Z   8
loop_
 _symmetry_equiv_pos_site_id
 _symmetry_equiv_pos_as_xyz
  1  'x, y, z'
  2  '-y+1/2, x+1/2, z+1/4'
  3  '-x, -y, z+1/2'
  4  'y+1/2, -x+1/2, z+3/4'
  5  'x+1/2, -y+1/2, -z+3/4'
  6  '-y, -x, -z+1/2'
  7  '-x+1/2, y+1/2, -z+1/4'
  8  'y, x, -z'
loop_
 _atom_site_type_symbol
 _atom_site_label
 _atom_site_symmetry_multiplicity
 _atom_site_fract_x
 _atom_site_fract_y
 _atom_site_fract_z
 _atom_site_occupancy
  H  H0  8  -0.06601926  0.73778943  0.48208656  1
  H  H1  8  -0.03532252  0.26744775  0.71254722  1
  H  H2  8  0.00981893  0.71016209  0.32937046  1
  H  H3  8  0.01676856  0.68554540  0.76464644  1
  H  H4  8  0.02321054  0.27968148  0.49407825  1
  H  H5  8  0.05970394  0.79232044  0.86863445  1
  C  C6  8  -0.07315292  0.58900955  0.46258936  1
  C  C7  8  0.03546411  0.57913035  0.41072918  1
  C  C8  8  0.06450919  0.68270889  0.67887497  1
  C  C9  8  0.07197619  0.58855938  0.73285477  1
  C  C10  8  0.07474116  0.61653562  0.35990485  1
  C  C11  8  0.11061640  0.80887601  0.63854678  1
  O  O12  8  -0.00038012  0.74339427  0.59578000  1
