###############################################################################################
#
# CIF file generated by modified CIFWriter class 
# in pymatgen (v2025.03.10) https://pymatgen.org/
#
###############################################################################################
data_PBE+MBD_tight_b51207b6368e932
_symmetry_space_group_name_H-M   Pbcn
_cell_length_a   11.02034589
_cell_length_b   12.80654779
_cell_length_c   7.34359424
_cell_angle_alpha   90.00000000
_cell_angle_beta   90.00000000
_cell_angle_gamma   90.00000000
_symmetry_Int_Tables_number   60
_chemical_formula_moiety   'C6 H6 O'
_chemical_formula_sum   'H48 C48 O8'
_cell_volume   1036.42044694
_cell_formula_units_Z   8
loop_
 _symmetry_equiv_pos_site_id
 _symmetry_equiv_pos_as_xyz
  1  'x, y, z'
  2  '-x, -y, -z'
  3  '-x+1/2, -y+1/2, z+1/2'
  4  'x+1/2, y+1/2, -z+1/2'
  5  'x+1/2, -y+1/2, -z'
  6  '-x+1/2, y+1/2, z'
  7  '-x, y, -z+1/2'
  8  'x, -y, z+1/2'
loop_
 _atom_site_type_symbol
 _atom_site_label
 _atom_site_symmetry_multiplicity
 _atom_site_fract_x
 _atom_site_fract_y
 _atom_site_fract_z
 _atom_site_occupancy
  H  H0  8  -0.01792408  0.36892603  0.11160202  1
  H  H1  8  0.01798278  0.38290526  -0.12293400  1
  H  H2  8  0.04684224  0.13786078  0.58532517  1
  H  H3  8  0.12826288  0.21991906  0.13578511  1
  H  H4  8  0.15402140  0.22684509  -0.10380830  1
  H  H5  8  0.21264987  0.39117411  0.59543533  1
  C  C6  8  0.05664885  0.36930913  0.01274538  1
  C  C7  8  0.13899660  0.10863956  0.58032433  1
  C  C8  8  0.14654197  0.27315523  0.02164052  1
  C  C9  8  0.16521003  0.43777059  0.05537658  1
  C  C10  8  0.23068595  0.47385642  0.58289580  1
  C  C11  8  0.24737686  0.35223807  0.05506494  1
  O  O12  8  0.14880652  0.00152824  0.59886680  1
