###############################################################################################
#
# CIF file generated by modified CIFWriter class 
# in pymatgen (v2025.03.10) https://pymatgen.org/
#
###############################################################################################
data_PBE+MBD_tight_bc9246c7e77b091
_symmetry_space_group_name_H-M   P4_32_12
_cell_length_a   13.72390332
_cell_length_b   13.72390332
_cell_length_c   5.85570035
_cell_angle_alpha   90.00000000
_cell_angle_beta   90.00000000
_cell_angle_gamma   90.00000000
_symmetry_Int_Tables_number   96
_chemical_formula_moiety   'C6 H6 O'
_chemical_formula_sum   'H48 C48 O8'
_cell_volume   1102.89494135
_cell_formula_units_Z   8
loop_
 _symmetry_equiv_pos_site_id
 _symmetry_equiv_pos_as_xyz
  1  'x, y, z'
  2  '-y+1/2, x+1/2, z+3/4'
  3  '-x, -y, z+1/2'
  4  'y+1/2, -x+1/2, z+1/4'
  5  'x+1/2, -y+1/2, -z+1/4'
  6  '-y, -x, -z+1/2'
  7  '-x+1/2, y+1/2, -z+3/4'
  8  'y, x, -z'
loop_
 _atom_site_type_symbol
 _atom_site_label
 _atom_site_symmetry_multiplicity
 _atom_site_fract_x
 _atom_site_fract_y
 _atom_site_fract_z
 _atom_site_occupancy
  H  H0  8  -0.10982192  0.78593592  1.01061810  1
  H  H1  8  -0.02539239  0.84829073  0.37245725  1
  H  H2  8  0.05626590  0.91968162  0.54090981  1
  H  H3  8  0.07980361  0.39696926  1.14014375  1
  H  H4  8  0.10624629  0.72589819  0.30947996  1
  H  H5  8  0.18658758  0.79658021  0.48536199  1
  C  C6  8  -0.04908233  0.75991964  0.90971786  1
  C  C7  8  0.00050115  0.78719463  0.71889445  1
  C  C8  8  0.02956145  0.84561949  0.50841927  1
  C  C9  8  0.06742432  0.64769255  0.84695568  1
  C  C10  8  0.07428207  0.71625274  0.68046449  1
  C  C11  8  0.11253234  0.76721217  0.46897757  1
  O  O12  8  -0.00838218  0.67428555  0.99031577  1
