###############################################################################################
#
# CIF file generated by modified CIFWriter class 
# in pymatgen (v2025.03.10) https://pymatgen.org/
#
###############################################################################################
data_PBE+MBD_tight_bf260d3d8e1cc7f
_symmetry_space_group_name_H-M   P4_22_12
_cell_length_a   14.55647925
_cell_length_b   14.55647925
_cell_length_c   5.36154927
_cell_angle_alpha   90.00000000
_cell_angle_beta   90.00000000
_cell_angle_gamma   90.00000000
_symmetry_Int_Tables_number   94
_chemical_formula_moiety   'C6 H6 O'
_chemical_formula_sum   'H48 C48 O8'
_cell_volume   1136.06450872
_cell_formula_units_Z   8
loop_
 _symmetry_equiv_pos_site_id
 _symmetry_equiv_pos_as_xyz
  1  'x, y, z'
  2  '-y+1/2, x+1/2, z+1/2'
  3  '-x, -y, z'
  4  'y+1/2, -x+1/2, z+1/2'
  5  'x+1/2, -y+1/2, -z+1/2'
  6  '-y, -x, -z'
  7  '-x+1/2, y+1/2, -z+1/2'
  8  'y, x, -z'
loop_
 _atom_site_type_symbol
 _atom_site_label
 _atom_site_symmetry_multiplicity
 _atom_site_fract_x
 _atom_site_fract_y
 _atom_site_fract_z
 _atom_site_occupancy
  H  H0  8  -0.09887228  0.21237234  -0.03295783  1
  H  H1  8  -0.05538089  0.13728593  0.36833240  1
  H  H2  8  -0.00219172  0.16197911  -0.18245130  1
  H  H3  8  0.04053684  0.08425447  0.22001818  1
  H  H4  8  0.07760251  0.41956394  -0.06343821  1
  H  H5  8  0.15167563  0.29291560  0.59838831  1
  C  C6  8  -0.02548960  0.19730320  -0.01295870  1
  C  C7  8  0.00240329  0.14888872  0.24046414  1
  C  C8  8  0.03372935  0.27740768  0.06895678  1
  C  C9  8  0.05969643  0.23376873  0.29539957  1
  C  C10  8  0.07464062  0.36130116  0.06229639  1
  C  C11  8  0.11586395  0.29216185  0.42128803  1
  O  O12  8  0.12564991  0.37074411  0.27861519  1
