###############################################################################################
#
# CIF file generated by modified CIFWriter class 
# in pymatgen (v2025.03.10) https://pymatgen.org/
#
###############################################################################################
data_PBE+MBD_tight_c6400a51ddace9f
_symmetry_space_group_name_H-M   I-4
_cell_length_a   15.71198071
_cell_length_b   15.71198071
_cell_length_c   4.15550093
_cell_angle_alpha   90.00000000
_cell_angle_beta   90.00000000
_cell_angle_gamma   90.00000000
_symmetry_Int_Tables_number   82
_chemical_formula_moiety   'C6 H6 O'
_chemical_formula_sum   'H48 C48 O8'
_cell_volume   1025.85329742
_cell_formula_units_Z   8
loop_
 _symmetry_equiv_pos_site_id
 _symmetry_equiv_pos_as_xyz
  1  'x, y, z'
  2  'y, -x, -z'
  3  '-x, -y, z'
  4  '-y, x, -z'
  5  'x+1/2, y+1/2, z+1/2'
  6  'y+1/2, -x+1/2, -z+1/2'
  7  '-x+1/2, -y+1/2, z+1/2'
  8  '-y+1/2, x+1/2, -z+1/2'
loop_
 _atom_site_type_symbol
 _atom_site_label
 _atom_site_symmetry_multiplicity
 _atom_site_fract_x
 _atom_site_fract_y
 _atom_site_fract_z
 _atom_site_occupancy
  H  H0  8  -0.08858937  0.24205584  1.10829761  1
  H  H1  8  -0.03269624  0.24797663  1.48240413  1
  H  H2  8  -0.00366966  0.11338220  0.95992108  1
  H  H3  8  0.05570463  0.12284494  1.32555842  1
  H  H4  8  0.06885781  0.57399913  0.54688536  1
  H  H5  8  0.21060363  0.22069861  0.65826779  1
  C  C6  8  -0.02581054  0.23844650  1.22250341  1
  C  C7  8  0.02874286  0.15816577  1.12136766  1
  C  C8  8  0.04170628  0.29237903  1.05844099  1
  C  C9  8  0.08195795  0.36266200  0.94380943  1
  C  C10  8  0.08970602  0.22005495  0.96106628  1
  C  C11  8  0.15742410  0.24814856  0.78762364  1
  O  O12  8  0.15358821  0.33605996  0.77759684  1
