###############################################################################################
#
# CIF file generated by modified CIFWriter class 
# in pymatgen (v2025.03.10) https://pymatgen.org/
#
###############################################################################################
data_PBE+MBD_tight_c729a9fe37bf35d
_symmetry_space_group_name_H-M   Pbca
_cell_length_a   8.95710541
_cell_length_b   10.92140326
_cell_length_c   9.82282978
_cell_angle_alpha   90.00000000
_cell_angle_beta   90.00000000
_cell_angle_gamma   90.00000000
_symmetry_Int_Tables_number   61
_chemical_formula_moiety   'C6 H6 O'
_chemical_formula_sum   'H48 C48 O8'
_cell_volume   960.91007431
_cell_formula_units_Z   8
loop_
 _symmetry_equiv_pos_site_id
 _symmetry_equiv_pos_as_xyz
  1  'x, y, z'
  2  '-x, -y, -z'
  3  '-x+1/2, -y, z+1/2'
  4  'x+1/2, y, -z+1/2'
  5  'x+1/2, -y+1/2, -z'
  6  '-x+1/2, y+1/2, z'
  7  '-x, y+1/2, -z+1/2'
  8  'x, -y+1/2, z+1/2'
loop_
 _atom_site_type_symbol
 _atom_site_label
 _atom_site_symmetry_multiplicity
 _atom_site_fract_x
 _atom_site_fract_y
 _atom_site_fract_z
 _atom_site_occupancy
  H  H0  8  -0.09226846  0.71485748  0.61263223  1
  H  H1  8  0.11025367  0.49318497  0.26497087  1
  H  H2  8  0.11683000  0.02614957  0.07931423  1
  H  H3  8  0.13207247  0.65285502  -0.22383520  1
  H  H4  8  0.24340197  0.41027460  0.06067453  1
  H  H5  8  0.24940947  0.10809844  0.28330780  1
  C  C6  8  -0.00705316  0.72692372  0.06870836  1
  C  C7  8  0.09280706  0.64199811  0.11254050  1
  C  C8  8  0.11316641  0.65318013  -0.11496468  1
  C  C9  8  0.16833081  0.59514463  -0.00351460  1
  C  C10  8  0.17857692  0.56045713  0.21007792  1
  C  C11  8  0.23738456  0.00787969  0.08068026  1
  O  O12  8  0.00480476  0.73492862  -0.07168780  1
