###############################################################################################
#
# CIF file generated by modified CIFWriter class 
# in pymatgen (v2025.03.10) https://pymatgen.org/
#
###############################################################################################
data_PBE+MBD_tight_c7518caa5659aec
_symmetry_space_group_name_H-M   Pnna
_cell_length_a   10.38071233
_cell_length_b   11.06582922
_cell_length_c   9.14408380
_cell_angle_alpha   90.00000000
_cell_angle_beta   90.00000000
_cell_angle_gamma   90.00000000
_symmetry_Int_Tables_number   52
_chemical_formula_moiety   'C6 H6 O'
_chemical_formula_sum   'H48 C48 O8'
_cell_volume   1050.39178554
_cell_formula_units_Z   8
loop_
 _symmetry_equiv_pos_site_id
 _symmetry_equiv_pos_as_xyz
  1  'x, y, z'
  2  '-x, -y, -z'
  3  '-x+1/2, -y, z'
  4  'x+1/2, y, -z'
  5  'x, -y+1/2, -z+1/2'
  6  '-x, y+1/2, z+1/2'
  7  '-x+1/2, y+1/2, -z+1/2'
  8  'x+1/2, -y+1/2, z+1/2'
loop_
 _atom_site_type_symbol
 _atom_site_label
 _atom_site_symmetry_multiplicity
 _atom_site_fract_x
 _atom_site_fract_y
 _atom_site_fract_z
 _atom_site_occupancy
  H  H0  8  -0.21196233  0.09737583  0.24317476  1
  H  H1  8  0.00914810  0.17554766  0.58754318  1
  H  H2  8  0.03233589  0.19976080  0.03481998  1
  H  H3  8  0.13477575  -0.06268960  0.13372940  1
  H  H4  8  0.22427723  0.09421936  0.51388434  1
  H  H5  8  0.24159216  0.21299128  0.38385896  1
  C  C6  8  -0.11032485  0.08309105  0.26339145  1
  C  C7  8  -0.01918892  0.12695556  0.35553660  1
  C  C8  8  0.03995254  0.20194140  0.47714639  1
  C  C9  8  0.07881711  -0.00274486  0.20254365  1
  C  C10  8  0.10059326  0.07386331  0.31616811  1
  C  C11  8  0.17418226  0.14655794  0.42975509  1
  O  O12  8  -0.05141335  0.00182478  0.16920531  1
