###############################################################################################
#
# CIF file generated by modified CIFWriter class 
# in pymatgen (v2025.03.10) https://pymatgen.org/
#
###############################################################################################
data_PBE+MBD_tight_d1320ed87eed9f8
_symmetry_space_group_name_H-M   P4_12_12
_cell_length_a   8.55613445
_cell_length_b   8.55613445
_cell_length_c   13.79492306
_cell_angle_alpha   90.00000000
_cell_angle_beta   90.00000000
_cell_angle_gamma   90.00000000
_symmetry_Int_Tables_number   92
_chemical_formula_moiety   'C6 H6 O'
_chemical_formula_sum   'H48 C48 O8'
_cell_volume   1009.89095717
_cell_formula_units_Z   8
loop_
 _symmetry_equiv_pos_site_id
 _symmetry_equiv_pos_as_xyz
  1  'x, y, z'
  2  '-y+1/2, x+1/2, z+1/4'
  3  '-x, -y, z+1/2'
  4  'y+1/2, -x+1/2, z+3/4'
  5  'x+1/2, -y+1/2, -z+3/4'
  6  '-y, -x, -z+1/2'
  7  '-x+1/2, y+1/2, -z+1/4'
  8  'y, x, -z'
loop_
 _atom_site_type_symbol
 _atom_site_label
 _atom_site_symmetry_multiplicity
 _atom_site_fract_x
 _atom_site_fract_y
 _atom_site_fract_z
 _atom_site_occupancy
  H  H0  8  -0.06616252  0.14194327  0.04369875  1
  H  H1  8  -0.05154405  0.15471688  0.17278739  1
  H  H2  8  -0.01119837  0.73355774  0.08963022  1
  H  H3  8  0.11415481  0.82364332  0.33314075  1
  H  H4  8  0.13656523  0.24548244  0.42359788  1
  H  H5  8  0.14959018  0.23221509  0.29398200  1
  C  C6  8  -0.05854435  0.22277594  0.10534592  1
  C  C7  8  0.02072850  0.61123171  0.09063896  1
  C  C8  8  0.02817105  0.44577356  0.34714480  1
  C  C9  8  0.06115892  0.35249374  0.09550720  1
  C  C10  8  0.07735858  0.70293473  0.33774651  1
  C  C11  8  0.14432452  0.31251714  0.35589713  1
  O  O12  8  -0.08242873  0.67938915  0.33447950  1
