###############################################################################################
#
# CIF file generated by modified CIFWriter class 
# in pymatgen (v2025.03.10) https://pymatgen.org/
#
###############################################################################################
data_PBE+MBD_tight_d1df274ba3a44b5
_symmetry_space_group_name_H-M   P-42_1c
_cell_length_a   10.41299077
_cell_length_b   10.41299077
_cell_length_c   9.30052430
_cell_angle_alpha   90.00000000
_cell_angle_beta   90.00000000
_cell_angle_gamma   90.00000000
_symmetry_Int_Tables_number   114
_chemical_formula_moiety   'C6 H6 O'
_chemical_formula_sum   'H48 C48 O8'
_cell_volume   1008.45935314
_cell_formula_units_Z   8
loop_
 _symmetry_equiv_pos_site_id
 _symmetry_equiv_pos_as_xyz
  1  'x, y, z'
  2  'y, -x, -z'
  3  '-x, -y, z'
  4  '-y, x, -z'
  5  'x+1/2, -y+1/2, -z+1/2'
  6  'y+1/2, x+1/2, z+1/2'
  7  '-x+1/2, y+1/2, -z+1/2'
  8  '-y+1/2, -x+1/2, z+1/2'
loop_
 _atom_site_type_symbol
 _atom_site_label
 _atom_site_symmetry_multiplicity
 _atom_site_fract_x
 _atom_site_fract_y
 _atom_site_fract_z
 _atom_site_occupancy
  H  H0  8  -0.06274453  0.83395570  0.87652635  1
  H  H1  8  -0.00003603  0.61862272  0.44796142  1
  H  H2  8  0.05947989  0.84499653  0.37740369  1
  H  H3  8  0.07163913  0.31247967  0.22440337  1
  H  H4  8  0.08555867  0.63884740  0.61214855  1
  H  H5  8  0.13791964  0.13815332  0.45369426  1
  C  C6  8  0.03865910  0.81059770  0.87547351  1
  C  C7  8  0.08915490  0.65551469  0.49555376  1
  C  C8  8  0.11572491  0.71394395  0.92279556  1
  C  C9  8  0.12486700  0.79858675  0.45376675  1
  C  C10  8  0.13771875  0.24304227  0.17927615  1
  C  C11  8  0.24473755  0.74655401  0.88777763  1
  O  O12  8  0.09761482  0.11641311  0.18797934  1
