###############################################################################################
#
# CIF file generated by modified CIFWriter class 
# in pymatgen (v2025.03.10) https://pymatgen.org/
#
###############################################################################################
data_PBE+MBD_tight_d24f6fbaa11de29
_symmetry_space_group_name_H-M   I4/m
_cell_length_a   12.14325959
_cell_length_b   12.14325959
_cell_length_c   7.00217027
_cell_angle_alpha   90.00000000
_cell_angle_beta   90.00000000
_cell_angle_gamma   90.00000000
_symmetry_Int_Tables_number   87
_chemical_formula_moiety   'C6 H6 O'
_chemical_formula_sum   'H48 C48 O8'
_cell_volume   1032.53129904
_cell_formula_units_Z   8
loop_
 _symmetry_equiv_pos_site_id
 _symmetry_equiv_pos_as_xyz
  1  'x, y, z'
  2  '-x, -y, -z+426/851'
  3  '-y+1/2, x+1/2, z'
  4  'y+1/2, -x+1/2, -z+426/851'
  5  '-x, -y, z'
  6  'x, y, -z+426/851'
  7  'y+1/2, -x+1/2, z'
  8  '-y+1/2, x+1/2, -z+426/851'
  9  'x+1/2, y+1/2, z+1/2'
  10  '-x+1/2, -y+1/2, -z+1/1000'
  11  '-y, x, z+1/2'
  12  'y, -x, -z+1/1000'
  13  '-x+1/2, -y+1/2, z+1/2'
  14  'x+1/2, y+1/2, -z+1/1000'
  15  'y, -x, z+1/2'
  16  '-y, x, -z+1/1000'
loop_
 _atom_site_type_symbol
 _atom_site_label
 _atom_site_symmetry_multiplicity
 _atom_site_fract_x
 _atom_site_fract_y
 _atom_site_fract_z
 _atom_site_occupancy
  H  H0  16  0.08120267  0.36240522  0.12240448  1
  H  H1  16  0.10280340  0.78380881  0.12240485  1
  H  H2  8  0.04380034  0.93235079  0.75029402  1
  H  H3  8  0.09713514  0.39714194  0.75029402  1
  C  C4  8  0.10042720  0.86360727  0.75029402  1
  C  C5  8  0.12435128  0.33309197  0.25029402  1
  C  C6  8  0.13199432  0.68132255  0.75029402  1
  C  C7  8  0.14485981  0.75296673  0.25029402  1
  C  C8  8  0.15184164  0.21119805  0.25029402  1
  C  C9  8  0.23114608  0.73279545  0.75029402  1
  O  O10  8  0.05031816  0.76104197  0.75029402  1
