###############################################################################################
#
# CIF file generated by modified CIFWriter class 
# in pymatgen (v2025.03.10) https://pymatgen.org/
#
###############################################################################################
data_PBE+MBD_tight_dafba7036c181bf
_symmetry_space_group_name_H-M   C2/c
_cell_length_a   20.67180760
_cell_length_b   4.03480501
_cell_length_c   12.43638522
_cell_angle_alpha   90.00000000
_cell_angle_beta   79.01481402
_cell_angle_gamma   90.00000000
_symmetry_Int_Tables_number   15
_chemical_formula_moiety   'C6 H6 O'
_chemical_formula_sum   'H48 C48 O8'
_cell_volume   1018.27143281
_cell_formula_units_Z   8
loop_
 _symmetry_equiv_pos_site_id
 _symmetry_equiv_pos_as_xyz
  1  'x, y, z'
  2  '-x, -y, -z'
  3  '-x, y, -z+1/2'
  4  'x, -y, z+1/2'
  5  'x+1/2, y+1/2, z'
  6  '-x+1/2, -y+1/2, -z'
  7  '-x+1/2, y+1/2, -z+1/2'
  8  'x+1/2, -y+1/2, z+1/2'
loop_
 _atom_site_type_symbol
 _atom_site_label
 _atom_site_symmetry_multiplicity
 _atom_site_fract_x
 _atom_site_fract_y
 _atom_site_fract_z
 _atom_site_occupancy
  H  H0  8  0.03950026  0.25065777  0.82984217  1
  H  H1  8  0.05486672  0.89016174  0.00864424  1
  H  H2  8  0.07880249  -0.28218078  0.55587465  1
  H  H3  8  0.17183519  0.75117571  -0.06217410  1
  H  H4  8  0.19641776  -0.14168053  0.48517772  1
  H  H5  8  0.23405807  0.50329626  0.21102625  1
  C  C6  8  0.08247336  0.75000502  0.26461852  1
  C  C7  8  0.08961917  -0.01583768  0.55182761  1
  C  C8  8  0.09807597  0.85867563  0.15943443  1
  C  C9  8  0.16433765  0.92564801  0.00671292  1
  C  C10  8  0.16516181  0.77622457  0.11858686  1
  C  C11  8  0.18847329  0.61862720  0.19992455  1
  O  O12  8  0.13789042  0.60276654  0.29060439  1
