###############################################################################################
#
# CIF file generated by modified CIFWriter class 
# in pymatgen (v2025.03.10) https://pymatgen.org/
#
###############################################################################################
data_PBE+MBD_tight_df32809f0448dec
_symmetry_space_group_name_H-M   Aea2
_cell_length_a   15.29250134
_cell_length_b   8.86354562
_cell_length_c   7.41848577
_cell_angle_alpha   90.00000000
_cell_angle_beta   90.00000000
_cell_angle_gamma   90.00000000
_symmetry_Int_Tables_number   41
_chemical_formula_moiety   'C6 H6 O'
_chemical_formula_sum   'H48 C48 O8'
_cell_volume   1005.54446445
_cell_formula_units_Z   8
loop_
 _symmetry_equiv_pos_site_id
 _symmetry_equiv_pos_as_xyz
  1  'x, y, z'
  2  '-x, -y, z'
  3  '-x+1/2, y+1/2, z'
  4  'x+1/2, -y+1/2, z'
  5  'x, y+1/2, z+1/2'
  6  '-x, -y+1/2, z+1/2'
  7  '-x+1/2, y, z+1/2'
  8  'x+1/2, -y, z+1/2'
loop_
 _atom_site_type_symbol
 _atom_site_label
 _atom_site_symmetry_multiplicity
 _atom_site_fract_x
 _atom_site_fract_y
 _atom_site_fract_z
 _atom_site_occupancy
  H  H0  8  -0.01780209  0.35543032  0.05855155  1
  H  H1  8  0.10551316  -0.00596388  0.29961901  1
  H  H2  8  0.13467129  0.56044906  0.41505168  1
  H  H3  8  0.20648776  0.54208514  0.22598457  1
  H  H4  8  0.20739105  0.34176986  0.56364855  1
  H  H5  8  0.21941029  0.32349451  0.87918717  1
  C  C6  8  0.03411071  0.31158659  0.14308844  1
  C  C7  8  0.10156357  0.11408329  0.27354707  1
  C  C8  8  0.10292858  0.36605523  0.23891383  1
  C  C9  8  0.14552244  0.24137810  0.32146833  1
  C  C10  8  0.16508567  0.48014511  0.32172951  1
  C  C11  8  0.21182332  0.34145533  0.41605584  1
  O  O12  8  0.03284399  0.15650171  0.16318496  1
