###############################################################################################
#
# CIF file generated by modified CIFWriter class 
# in pymatgen (v2025.03.10) https://pymatgen.org/
#
###############################################################################################
data_PBE+MBD_tight_e0b628733faec49
_symmetry_space_group_name_H-M   I-4
_cell_length_a   10.27317268
_cell_length_b   10.27317268
_cell_length_c   9.58652608
_cell_angle_alpha   90.00000000
_cell_angle_beta   90.00000000
_cell_angle_gamma   90.00000000
_symmetry_Int_Tables_number   82
_chemical_formula_moiety   'C6 H6 O'
_chemical_formula_sum   'H48 C48 O8'
_cell_volume   1011.74352649
_cell_formula_units_Z   8
loop_
 _symmetry_equiv_pos_site_id
 _symmetry_equiv_pos_as_xyz
  1  'x, y, z'
  2  'y, -x, -z'
  3  '-x, -y, z'
  4  '-y, x, -z'
  5  'x+1/2, y+1/2, z+1/2'
  6  'y+1/2, -x+1/2, -z+1/2'
  7  '-x+1/2, -y+1/2, z+1/2'
  8  '-y+1/2, x+1/2, -z+1/2'
loop_
 _atom_site_type_symbol
 _atom_site_label
 _atom_site_symmetry_multiplicity
 _atom_site_fract_x
 _atom_site_fract_y
 _atom_site_fract_z
 _atom_site_occupancy
  H  H0  8  -0.04721497  0.83924249  0.15356302  1
  H  H1  8  0.01002023  0.34088883  0.38228437  1
  H  H2  8  0.02729874  0.33121206  0.82316684  1
  H  H3  8  0.06619422  0.36028682  0.55735293  1
  H  H4  8  0.09142653  0.11040044  0.38637103  1
  H  H5  8  0.13701294  0.84481041  0.44295674  1
  C  C6  8  0.05641515  0.82200487  0.14473520  1
  C  C7  8  0.09198045  0.32357346  0.45345996  1
  C  C8  8  0.10529487  0.26287256  0.84362657  1
  C  C9  8  0.13599187  0.72428067  0.10209737  1
  C  C10  8  0.14505300  0.17900439  0.45246169  1
  C  C11  8  0.22958701  0.26649392  0.89189591  1
  O  O12  8  0.07270374  0.13396625  0.81998919  1
