###############################################################################################
#
# CIF file generated by modified CIFWriter class 
# in pymatgen (v2025.03.10) https://pymatgen.org/
#
###############################################################################################
data_PBE+MBD_tight_e2f75abce4f6882
_symmetry_space_group_name_H-M   Pbcn
_cell_length_a   8.94952351
_cell_length_b   12.03257903
_cell_length_c   9.23386814
_cell_angle_alpha   90.00000000
_cell_angle_beta   90.00000000
_cell_angle_gamma   90.00000000
_symmetry_Int_Tables_number   60
_chemical_formula_moiety   'C6 H6 O'
_chemical_formula_sum   'H48 C48 O8'
_cell_volume   994.35692941
_cell_formula_units_Z   8
loop_
 _symmetry_equiv_pos_site_id
 _symmetry_equiv_pos_as_xyz
  1  'x, y, z'
  2  '-x, -y, -z'
  3  '-x+1/2, -y+1/2, z+1/2'
  4  'x+1/2, y+1/2, -z+1/2'
  5  'x+1/2, -y+1/2, -z'
  6  '-x+1/2, y+1/2, z'
  7  '-x, y, -z+1/2'
  8  'x, -y, z+1/2'
loop_
 _atom_site_type_symbol
 _atom_site_label
 _atom_site_symmetry_multiplicity
 _atom_site_fract_x
 _atom_site_fract_y
 _atom_site_fract_z
 _atom_site_occupancy
  H  H0  8  -0.04859302  0.26915222  0.90380856  1
  H  H1  8  0.03737726  0.42591994  0.42208532  1
  H  H2  8  0.11712956  0.03907233  1.19376365  1
  H  H3  8  0.13534133  0.28163495  0.25545511  1
  H  H4  8  0.15067789  0.47077585  0.83741748  1
  H  H5  8  0.24384361  0.38336300  0.16299693  1
  C  C6  8  0.03649298  0.20962770  0.93472738  1
  C  C7  8  0.12620148  0.08376660  1.09244109  1
  C  C8  8  0.14908860  0.44359628  0.37890948  1
  C  C9  8  0.16374071  0.16647558  0.87742975  1
  C  C10  8  0.21036388  0.35260529  0.27006289  1
  C  C11  8  0.22037574  0.08662305  0.97694456  1
  O  O12  8  0.01254989  0.15914376  1.06742283  1
