###############################################################################################
#
# CIF file generated by modified CIFWriter class 
# in pymatgen (v2025.03.10) https://pymatgen.org/
#
###############################################################################################
data_PBE+MBD_tight_e5bcde8bcf78987
_symmetry_space_group_name_H-M   Pbcn
_cell_length_a   18.40722729
_cell_length_b   5.32369333
_cell_length_c   9.87137360
_cell_angle_alpha   90.00000000
_cell_angle_beta   90.00000000
_cell_angle_gamma   90.00000000
_symmetry_Int_Tables_number   60
_chemical_formula_moiety   'C6 H6 O'
_chemical_formula_sum   'H48 C48 O8'
_cell_volume   967.33965998
_cell_formula_units_Z   8
loop_
 _symmetry_equiv_pos_site_id
 _symmetry_equiv_pos_as_xyz
  1  'x, y, z'
  2  '-x, -y, -z'
  3  '-x+1/2, -y+1/2, z+1/2'
  4  'x+1/2, y+1/2, -z+1/2'
  5  'x+1/2, -y+1/2, -z'
  6  '-x+1/2, y+1/2, z'
  7  '-x, y, -z+1/2'
  8  'x, -y, z+1/2'
loop_
 _atom_site_type_symbol
 _atom_site_label
 _atom_site_symmetry_multiplicity
 _atom_site_fract_x
 _atom_site_fract_y
 _atom_site_fract_z
 _atom_site_occupancy
  H  H0  8  0.04648586  0.25484132  -0.11671653  1
  H  H1  8  0.07200336  0.18246476  0.29752592  1
  H  H2  8  0.15645425  0.12786502  0.47530625  1
  H  H3  8  0.16778792  0.17045370  0.72442606  1
  H  H4  8  0.22850832  0.34803585  0.45112020  1
  H  H5  8  0.24196547  0.38233392  0.70254409  1
  C  C6  8  0.07391185  0.30570969  -0.02363099  1
  C  C7  8  0.08766152  0.26625189  0.20199726  1
  C  C8  8  0.12460643  0.47569189  0.01672702  1
  C  C9  8  0.13309960  0.45099721  0.15935401  1
  C  C10  8  0.17873069  0.30882379  0.50864587  1
  C  C11  8  0.18712219  0.33459147  0.66766141  1
  O  O12  8  0.05118885  0.17421976  0.08983650  1
