###############################################################################################
#
# CIF file generated by modified CIFWriter class 
# in pymatgen (v2025.03.10) https://pymatgen.org/
#
###############################################################################################
data_PBE+MBD_tight_e9c536bfd8d46c5
_symmetry_space_group_name_H-M   C2/c
_cell_length_a   17.66443779
_cell_length_b   5.29543406
_cell_length_c   12.78601918
_cell_angle_alpha   90.00000000
_cell_angle_beta   124.93716567
_cell_angle_gamma   90.00000000
_symmetry_Int_Tables_number   15
_chemical_formula_moiety   'C6 H6 O'
_chemical_formula_sum   'H48 C48 O8'
_cell_volume   980.47010925
_cell_formula_units_Z   8
loop_
 _symmetry_equiv_pos_site_id
 _symmetry_equiv_pos_as_xyz
  1  'x, y, z'
  2  '-x, -y, -z'
  3  '-x, y, -z+1/2'
  4  'x, -y, z+1/2'
  5  'x+1/2, y+1/2, z'
  6  '-x+1/2, -y+1/2, -z'
  7  '-x+1/2, y+1/2, -z+1/2'
  8  'x+1/2, -y+1/2, z+1/2'
loop_
 _atom_site_type_symbol
 _atom_site_label
 _atom_site_symmetry_multiplicity
 _atom_site_fract_x
 _atom_site_fract_y
 _atom_site_fract_z
 _atom_site_occupancy
  H  H0  8  0.02582064  0.40572929  0.17024160  1
  H  H1  8  0.04632940  -0.03436160  -0.06794368  1
  H  H2  8  0.12524303  0.78741858  0.77154041  1
  H  H3  8  0.12668432  0.76764638  0.20372300  1
  H  H4  8  0.20923175  0.57466949  -0.01972390  1
  H  H5  8  0.22685585  0.57817281  0.30210139  1
  C  C6  8  0.08125943  0.13910249  -0.01952504  1
  C  C7  8  0.09371044  0.35052725  0.19322608  1
  C  C8  8  0.09564220  0.27794310  0.07973869  1
  C  C9  8  0.15180102  0.48802777  0.09662745  1
  C  C10  8  0.15735358  0.58197998  0.21298291  1
  C  C11  8  0.16971935  0.47179064  0.00679070  1
  O  O12  8  0.12623831  0.25774035  -0.06586433  1
