###############################################################################################
#
# CIF file generated by modified CIFWriter class 
# in pymatgen (v2025.03.10) https://pymatgen.org/
#
###############################################################################################
data_PBE+MBD_tight_f0a3a265408ff2
_symmetry_space_group_name_H-M   P4/n
_cell_length_a   12.30604048
_cell_length_b   12.30604048
_cell_length_c   6.90490681
_cell_angle_alpha   90.00000000
_cell_angle_beta   90.00000000
_cell_angle_gamma   90.00000000
_symmetry_Int_Tables_number   85
_chemical_formula_moiety   'C6 H6 O'
_chemical_formula_sum   'H48 C48 O8'
_cell_volume   1045.66964313
_cell_formula_units_Z   8
loop_
 _symmetry_equiv_pos_site_id
 _symmetry_equiv_pos_as_xyz
  1  'x, y, z'
  2  '-y+1/2, x+1/2, z'
  3  '-x, -y, z'
  4  'y+1/2, -x+1/2, z'
  5  '-x+1/2, -y+1/2, -z'
  6  'y, -x, -z'
  7  'x+1/2, y+1/2, -z'
  8  '-y, x, -z'
loop_
 _atom_site_type_symbol
 _atom_site_label
 _atom_site_symmetry_multiplicity
 _atom_site_fract_x
 _atom_site_fract_y
 _atom_site_fract_z
 _atom_site_occupancy
  H  H0  8  -0.05151550  0.12276185  0.74940022  1
  H  H1  8  -0.04633118  0.78633338  0.12079188  1
  H  H2  8  -0.04611563  0.78618692  0.38002667  1
  H  H3  8  0.09713916  0.64336337  0.12042066  1
  H  H4  8  0.09760180  0.64342001  0.37915526  1
  H  H5  8  0.13781358  0.68447568  0.75111050  1
  C  C6  8  0.00533281  0.78581557  0.25026958  1
  C  C7  8  0.03304770  0.14675077  0.74977427  1
  C  C8  8  0.09647774  0.69520914  0.24977064  1
  C  C9  8  0.09689915  0.86858288  0.25013314  1
  C  C10  8  0.16205103  0.27704319  0.75051400  1
  C  C11  8  0.17900510  0.78716154  0.24960199  1
  O  O12  8  0.05072889  0.25814106  0.75014649  1
