###############################################################################################
#
# CIF file generated by modified CIFWriter class 
# in pymatgen (v2025.03.10) https://pymatgen.org/
#
###############################################################################################
data_PBE+MBD_tight_f627a401e162fa3
_symmetry_space_group_name_H-M   P4_12_12
_cell_length_a   9.24401092
_cell_length_b   9.24401092
_cell_length_c   11.70259557
_cell_angle_alpha   90.00000000
_cell_angle_beta   90.00000000
_cell_angle_gamma   90.00000000
_symmetry_Int_Tables_number   92
_chemical_formula_moiety   'C6 H6 O'
_chemical_formula_sum   'H48 C48 O8'
_cell_volume   1000.00712906
_cell_formula_units_Z   8
loop_
 _symmetry_equiv_pos_site_id
 _symmetry_equiv_pos_as_xyz
  1  'x, y, z'
  2  '-y+1/2, x+1/2, z+1/4'
  3  '-x, -y, z+1/2'
  4  'y+1/2, -x+1/2, z+3/4'
  5  'x+1/2, -y+1/2, -z+3/4'
  6  '-y, -x, -z+1/2'
  7  '-x+1/2, y+1/2, -z+1/4'
  8  'y, x, -z'
loop_
 _atom_site_type_symbol
 _atom_site_label
 _atom_site_symmetry_multiplicity
 _atom_site_fract_x
 _atom_site_fract_y
 _atom_site_fract_z
 _atom_site_occupancy
  H  H0  8  -0.02715606  0.31301246  0.73330940  1
  H  H1  8  -0.00044637  0.92161011  0.61740574  1
  H  H2  8  0.01126893  0.16279355  0.64307079  1
  H  H3  8  0.02089928  0.57699883  0.83583375  1
  H  H4  8  0.11800047  0.32688844  0.49799888  1
  H  H5  8  0.14251931  0.32748759  0.12704969  1
  C  C6  8  0.05503370  0.26360855  0.67824956  1
  C  C7  8  0.09132470  0.86434865  0.58187663  1
  C  C8  8  0.12120485  0.36892293  0.58559902  1
  C  C9  8  0.14998175  0.76525734  0.89603783  1
  C  C10  8  0.18486480  0.71207767  0.45083385  1
  C  C11  8  0.20610744  0.25390752  0.72882866  1
  O  O12  8  0.05891816  0.77953237  0.48722461  1
