###############################################################################################
#
# CIF file generated by modified CIFWriter class 
# in pymatgen (v2025.03.10) https://pymatgen.org/
#
###############################################################################################
data_PBE+MBD_tight_f961ea907d1ca8f
_symmetry_space_group_name_H-M   P4_2bc
_cell_length_a   11.95191300
_cell_length_b   11.95191300
_cell_length_c   7.24022868
_cell_angle_alpha   90.00000000
_cell_angle_beta   90.00000000
_cell_angle_gamma   90.00000000
_symmetry_Int_Tables_number   106
_chemical_formula_moiety   'C6 H6 O'
_chemical_formula_sum   'H48 C48 O8'
_cell_volume   1034.25381025
_cell_formula_units_Z   8
loop_
 _symmetry_equiv_pos_site_id
 _symmetry_equiv_pos_as_xyz
  1  'x, y, z'
  2  '-y, x, z+1/2'
  3  '-x, -y, z'
  4  'y, -x, z+1/2'
  5  '-x+1/2, y+1/2, z'
  6  'y+1/2, x+1/2, z+1/2'
  7  'x+1/2, -y+1/2, z'
  8  '-y+1/2, -x+1/2, z+1/2'
loop_
 _atom_site_type_symbol
 _atom_site_label
 _atom_site_symmetry_multiplicity
 _atom_site_fract_x
 _atom_site_fract_y
 _atom_site_fract_z
 _atom_site_occupancy
  H  H0  8  -0.08044323  0.22458010  0.59871293  1
  H  H1  8  -0.03023999  0.87874815  -0.00176067  1
  H  H2  8  -0.00279548  0.84846601  0.23566275  1
  H  H3  8  0.05914675  0.69730860  -0.08907769  1
  H  H4  8  0.10029687  0.67599383  0.14449580  1
  H  H5  8  0.12543483  0.29499148  -0.10945873  1
  C  C6  8  0.00794972  0.22198026  0.56577975  1
  C  C7  8  0.03336869  0.84972285  0.09654002  1
  C  C8  8  0.09226293  0.14563583  0.57310566  1
  C  C9  8  0.09383176  0.73838278  0.03368739  1
  C  C10  8  0.16319304  0.30389950  0.45366659  1
  C  C11  8  0.19069723  0.19795395  0.50444089  1
  O  O12  8  0.05107537  0.32011764  0.49262578  1
