###############################################################################################
#
# CIF file generated by modified CIFWriter class 
# in pymatgen (v2025.03.10) https://pymatgen.org/
#
###############################################################################################
data_PBE+MBD_tight_fa222bbdbf52dd7
_symmetry_space_group_name_H-M   Aea2
_cell_length_a   9.69948519
_cell_length_b   13.83352328
_cell_length_c   7.83206013
_cell_angle_alpha   90.00000000
_cell_angle_beta   90.00000000
_cell_angle_gamma   90.00000000
_symmetry_Int_Tables_number   41
_chemical_formula_moiety   'C6 H6 O'
_chemical_formula_sum   'H48 C48 O8'
_cell_volume   1050.89058861
_cell_formula_units_Z   8
loop_
 _symmetry_equiv_pos_site_id
 _symmetry_equiv_pos_as_xyz
  1  'x, y, z'
  2  '-x, -y, z'
  3  '-x+1/2, y+1/2, z'
  4  'x+1/2, -y+1/2, z'
  5  'x, y+1/2, z+1/2'
  6  '-x, -y+1/2, z+1/2'
  7  '-x+1/2, y, z+1/2'
  8  'x+1/2, -y, z+1/2'
loop_
 _atom_site_type_symbol
 _atom_site_label
 _atom_site_symmetry_multiplicity
 _atom_site_fract_x
 _atom_site_fract_y
 _atom_site_fract_z
 _atom_site_occupancy
  H  H0  8  -0.06571466  0.10584244  0.23210158  1
  H  H1  8  0.04345981  0.12984398  0.82153048  1
  H  H2  8  0.05054205  0.07307926  0.61697602  1
  H  H3  8  0.21192220  0.01095523  0.93565744  1
  H  H4  8  0.21674649  0.30110121  0.03895313  1
  H  H5  8  0.21769764  -0.04791454  0.73280971  1
  C  C6  8  0.03983755  0.12799063  0.20992639  1
  C  C7  8  0.11233951  0.09863076  0.72529209  1
  C  C8  8  0.16810235  0.09232768  0.24038848  1
  C  C9  8  0.19339855  0.23503862  0.10733983  1
  C  C10  8  0.21955747  0.02264637  0.79743914  1
  C  C11  8  0.23494429  0.16027668  0.67597043  1
  O  O12  8  0.05419463  0.21607144  0.12820986  1
