###############################################################################################
#
# CIF file generated by modified CIFWriter class 
# in pymatgen (v2025.03.10) https://pymatgen.org/
#
###############################################################################################
data_PBE+MBD_tight_1027c4dc386bbc4
_symmetry_space_group_name_H-M   P-3
_cell_length_a   14.65199723
_cell_length_b   14.65199723
_cell_length_c   9.67604535
_cell_angle_alpha   90.00000000
_cell_angle_beta   90.00000000
_cell_angle_gamma   120.00000000
_symmetry_Int_Tables_number   147
_chemical_formula_moiety   'C4 H8 N8 O8'
_chemical_formula_sum   'H48 C24 N48 O48'
_cell_volume   1798.96279991
_cell_formula_units_Z   6
loop_
 _symmetry_equiv_pos_site_id
 _symmetry_equiv_pos_as_xyz
  1  'x, y, z'
  2  '-x, -y, -z'
  3  '-y, x-y, z'
  4  'y, -x+y, -z'
  5  '-x+y, -x, z'
  6  'x-y, x, -z'
loop_
 _atom_site_type_symbol
 _atom_site_label
 _atom_site_symmetry_multiplicity
 _atom_site_fract_x
 _atom_site_fract_y
 _atom_site_fract_z
 _atom_site_occupancy
  H  H0  6  -0.15282241  0.21481914  0.25996285  1
  H  H1  6  -0.09259260  0.14095522  0.20216695  1
  H  H2  6  -0.09126469  0.39253429  0.13650069  1
  H  H3  6  -0.08205742  0.33181575  0.42237398  1
  H  H4  6  -0.02307503  0.40583569  -0.02272477  1
  H  H5  6  -0.00214796  0.51429099  0.29282696  1
  H  H6  6  0.00818202  0.31858914  0.53351898  1
  H  H7  6  0.13855761  0.58922580  0.29456940  1
  C  C8  6  -0.07928580  0.22009596  0.22301088  1
  C  C9  6  -0.02678908  0.38645709  0.08695072  1
  C  C10  6  -0.00330924  0.34003949  0.42939414  1
  C  C11  6  0.07049213  0.50956271  0.28923277  1
  N  N12  6  -0.06608845  0.22379225  -0.03065938  1
  N  N13  6  -0.04611846  0.27987691  0.09386394  1
  N  N14  6  0.00023018  0.26916055  0.32885949  1
  N  N15  6  0.06103734  0.22201127  0.36402222  1
  N  N16  6  0.06945667  0.46303409  0.15749991  1
  N  N17  6  0.07623319  0.45060785  0.40756516  1
  N  N18  6  0.14053853  0.50837442  0.51743754  1
  N  N19  6  0.16599031  0.48388269  0.10231518  1
  O  O20  6  -0.09738223  0.12963575  -0.02133386  1
  O  O21  6  -0.05037729  0.27393762  -0.13899117  1
  O  O22  6  0.04635952  0.14487875  0.29913507  1
  O  O23  6  0.12510111  0.26647720  0.45800879  1
  O  O24  6  0.13897832  0.45924967  0.62192417  1
  O  O25  6  0.16417282  0.45430695  -0.01741817  1
  O  O26  6  0.19229681  0.60478639  0.50392843  1
  O  O27  6  0.24342305  0.52984089  0.17733228  1
