###############################################################################################
#
# CIF file generated by modified CIFWriter class 
# in pymatgen (v2025.03.10) https://pymatgen.org/
#
###############################################################################################
data_PBE+MBD_tight_109fa9b4d8bea23
_symmetry_space_group_name_H-M   P6_2
_cell_length_a   16.62363147
_cell_length_b   16.62363147
_cell_length_c   7.55719221
_cell_angle_alpha   90.00000000
_cell_angle_beta   90.00000000
_cell_angle_gamma   120.00000000
_symmetry_Int_Tables_number   171
_chemical_formula_moiety   'C4 H8 N8 O8'
_chemical_formula_sum   'H48 C24 N48 O48'
_cell_volume   1808.60157491
_cell_formula_units_Z   6
loop_
 _symmetry_equiv_pos_site_id
 _symmetry_equiv_pos_as_xyz
  1  'x, y, z'
  2  'x-y, x, z+1/3'
  3  '-y, x-y, z+2/3'
  4  '-x, -y, z'
  5  '-x+y, -x, z+1/3'
  6  'y, -x+y, z+2/3'
loop_
 _atom_site_type_symbol
 _atom_site_label
 _atom_site_symmetry_multiplicity
 _atom_site_fract_x
 _atom_site_fract_y
 _atom_site_fract_z
 _atom_site_occupancy
  H  H0  6  0.03108427  0.82992632  0.73153573  1
  H  H1  6  0.08778886  0.67088852  1.03427906  1
  H  H2  6  0.09050557  0.37572002  0.32027404  1
  H  H3  6  0.11033367  0.37033053  0.08876610  1
  H  H4  6  0.12326233  0.26073838  0.51739419  1
  H  H5  6  0.17470984  0.78978947  1.00028916  1
  H  H6  6  0.18543350  0.49827145  0.46293118  1
  H  H7  6  0.28812426  0.58769328  0.36087116  1
  C  C8  6  0.09553115  0.82822146  0.74612784  1
  C  C9  6  0.13161008  0.72231655  0.93570838  1
  C  C10  6  0.13701359  0.37201019  0.22163219  1
  C  C11  6  0.25127979  0.51462558  0.39966127  1
  N  N12  6  -0.00167979  0.65888529  0.73876750  1
  N  N13  6  0.07571844  0.73665992  0.80433658  1
  N  N14  6  0.10767541  0.88168359  0.43843350  1
  N  N15  6  0.14080877  0.28728150  0.24663150  1
  N  N16  6  0.17485648  0.70387857  0.45909556  1
  N  N17  6  0.18958622  0.61239352  0.92780014  1
  N  N18  6  0.19024602  0.69026771  0.85693235  1
  N  N19  6  0.22679309  0.45532711  0.24501035  1
  O  O20  6  -0.04498546  0.67216988  0.61928253  1
  O  O21  6  -0.02088547  0.58357070  0.80220494  1
  O  O22  6  0.02983050  0.87134359  0.45888311  1
  O  O23  6  0.08730732  0.24299382  -0.02927325  1
  O  O24  6  0.13470968  0.57125383  1.04797130  1
  O  O25  6  0.14115114  0.72568495  0.33560950  1
  O  O26  6  0.16371393  0.62630630  0.48916268  1
  O  O27  6  0.24546946  0.59169283  0.86496956  1
