###############################################################################################
#
# CIF file generated by modified CIFWriter class 
# in pymatgen (v2025.03.10) https://pymatgen.org/
#
###############################################################################################
data_PBE+MBD_tight_147f155fba7f00e
_symmetry_space_group_name_H-M   P3_121
_cell_length_a   7.58159354
_cell_length_b   7.58159354
_cell_length_c   39.33330855
_cell_angle_alpha   90.00000000
_cell_angle_beta   90.00000000
_cell_angle_gamma   120.00000000
_symmetry_Int_Tables_number   152
_chemical_formula_moiety   'C4 H8 N8 O8'
_chemical_formula_sum   'H48 C24 N48 O48'
_cell_volume   1957.99737655
_cell_formula_units_Z   6
loop_
 _symmetry_equiv_pos_site_id
 _symmetry_equiv_pos_as_xyz
  1  'x, y, z'
  2  '-y, x-y, z+1/3'
  3  '-x+y, -x, z+2/3'
  4  'y, x, -z'
  5  'x-y, -y, -z+2/3'
  6  '-x, -x+y, -z+1/3'
loop_
 _atom_site_type_symbol
 _atom_site_label
 _atom_site_symmetry_multiplicity
 _atom_site_fract_x
 _atom_site_fract_y
 _atom_site_fract_z
 _atom_site_occupancy
  H  H0  6  -1.21285438  -3.76371195  0.37928415  1
  H  H1  6  -1.07661793  -3.64931480  0.48149934  1
  H  H2  6  -1.05372150  -3.85161881  0.39689822  1
  H  H3  6  -0.97498109  -3.78714424  0.45999915  1
  H  H4  6  -0.72690578  -3.69125193  0.38402792  1
  H  H5  6  -0.64927112  -3.63181519  0.44721485  1
  H  H6  6  -0.62371809  -3.46798664  0.35787221  1
  H  H7  6  -0.48959181  -3.37329066  0.46007321  1
  C  C8  6  -1.08198125  -3.72317883  0.39576961  1
  C  C9  6  -1.00084139  -3.65703780  0.45842362  1
  C  C10  6  -0.70122128  -3.53560398  0.38178302  1
  C  C11  6  -0.62025920  -3.47545103  0.44439210  1
  N  N12  6  -1.32165705  -3.70217520  0.43563484  1
  N  N13  6  -1.13313950  -3.68590632  0.42971048  1
  N  N14  6  -0.91535326  -3.38909993  0.36861779  1
  N  N15  6  -0.89988800  -3.55141353  0.38189269  1
  N  N16  6  -0.80208537  -3.47546474  0.45580040  1
  N  N17  6  -0.78653589  -3.28904684  0.46308685  1
  N  N18  6  -0.56916948  -3.41159369  0.40924792  1
  N  N19  6  -0.37744171  -3.24762098  0.40143878  1
  O  O20  6  -1.31637860  2.36063789  0.13167515  1
  O  O21  6  -1.30564754  2.43623820  0.07774504  1
  O  O22  6  -1.08662409  -3.40810543  0.36891422  1
  O  O23  6  -0.94341267  -3.29094584  0.47167617  1
  O  O24  6  -0.75820284  -3.24302251  0.35787318  1
  O  O25  6  -0.61581458  -3.13772770  0.46032243  1
  O  O26  6  -0.33905754  -3.20022690  0.37140221  1
  O  O27  6  -0.26050966  -3.16304451  0.42549888  1
