###############################################################################################
#
# CIF file generated by modified CIFWriter class 
# in pymatgen (v2025.03.10) https://pymatgen.org/
#
###############################################################################################
data_PBE+MBD_tight_187ac946e2806d2
_symmetry_space_group_name_H-M   P6_1
_cell_length_a   7.73117493
_cell_length_b   7.73117493
_cell_length_c   32.94671895
_cell_angle_alpha   90.00000000
_cell_angle_beta   90.00000000
_cell_angle_gamma   120.00000000
_symmetry_Int_Tables_number   169
_chemical_formula_moiety   'C4 H8 N8 O8'
_chemical_formula_sum   'H48 C24 N48 O48'
_cell_volume   1705.42962699
_cell_formula_units_Z   6
loop_
 _symmetry_equiv_pos_site_id
 _symmetry_equiv_pos_as_xyz
  1  'x, y, z'
  2  'x-y, x, z+1/6'
  3  '-y, x-y, z+1/3'
  4  '-x, -y, z+1/2'
  5  '-x+y, -x, z+2/3'
  6  'y, -x+y, z+5/6'
loop_
 _atom_site_type_symbol
 _atom_site_label
 _atom_site_symmetry_multiplicity
 _atom_site_fract_x
 _atom_site_fract_y
 _atom_site_fract_z
 _atom_site_occupancy
  H  H0  6  -0.21415634  0.39126429  0.36110177  1
  H  H1  6  -0.09118524  0.27756562  0.09309816  1
  H  H2  6  -0.08061992  0.17129177  0.34090506  1
  H  H3  6  -0.07793445  0.64762022  0.34596382  1
  H  H4  6  -0.03202707  0.33035984  0.14564154  1
  H  H5  6  0.13272749  -0.58835956  0.45776568  1
  H  H6  6  0.13813897  0.85431937  0.97885064  1
  H  H7  6  0.18811169  0.68720482  0.16482350  1
  C  C8  6  -0.13744225  0.49365523  0.33585209  1
  C  C9  6  -0.00090778  0.27055248  0.31536478  1
  C  C10  6  0.02930813  0.36180292  0.11471410  1
  C  C11  6  0.25487386  0.72212548  0.13437250  1
  N  N12  6  -0.12155095  0.17693225  0.27955456  1
  N  N13  6  -0.03625134  0.24363523  0.24192942  1
  N  N14  6  0.02808287  0.63288085  0.07620684  1
  N  N15  6  0.02952427  0.46853224  0.32342850  1
  N  N16  6  0.11733151  0.57354812  0.10562046  1
  N  N17  6  0.14541025  -0.25814184  0.44392814  1
  N  N18  6  0.22312175  0.62955095  0.32469352  1
  N  N19  6  0.26958573  -0.28447598  0.47071632  1
  O  O20  6  -0.13884821  0.15607208  0.21198089  1
  O  O21  6  -0.11473789  0.49982095  0.05764082  1
  O  O22  6  -0.11092928  0.76246698  0.28248039  1
  O  O23  6  0.06506846  -0.38523307  0.41722408  1
  O  O24  6  0.09893067  0.81307960  0.07082544  1
  O  O25  6  0.13578585  0.38702071  0.24127547  1
  O  O26  6  0.20431577  0.44821639  0.66476543  1
  O  O27  6  0.23408220  0.63979189  0.98604905  1
