###############################################################################################
#
# CIF file generated by modified CIFWriter class 
# in pymatgen (v2025.03.10) https://pymatgen.org/
#
###############################################################################################
data_PBE+MBD_tight_1afdcb022052021
_symmetry_space_group_name_H-M   P6_5
_cell_length_a   18.02233781
_cell_length_b   18.02233781
_cell_length_c   6.72530190
_cell_angle_alpha   90.00000000
_cell_angle_beta   90.00000000
_cell_angle_gamma   120.00000000
_symmetry_Int_Tables_number   170
_chemical_formula_moiety   'C4 H8 N8 O8'
_chemical_formula_sum   'H48 C24 N48 O48'
_cell_volume   1891.75403133
_cell_formula_units_Z   6
loop_
 _symmetry_equiv_pos_site_id
 _symmetry_equiv_pos_as_xyz
  1  'x, y, z'
  2  'x-y, x, z+5/6'
  3  '-y, x-y, z+2/3'
  4  '-x, -y, z+1/2'
  5  '-x+y, -x, z+1/3'
  6  'y, -x+y, z+1/6'
loop_
 _atom_site_type_symbol
 _atom_site_label
 _atom_site_symmetry_multiplicity
 _atom_site_fract_x
 _atom_site_fract_y
 _atom_site_fract_z
 _atom_site_occupancy
  H  H0  6  0.02424498  0.41731077  0.41446068  1
  H  H1  6  0.11178133  0.25366788  0.25507644  1
  H  H2  6  0.13823057  0.46148869  0.41943153  1
  H  H3  6  0.16089588  0.74031649  0.18043770  1
  H  H4  6  0.16705511  0.80811812  0.66403821  1
  H  H5  6  0.16825268  0.58242696  -0.00021337  1
  H  H6  6  0.17546714  0.72460177  0.43661817  1
  H  H7  6  0.21520547  0.55560156  0.20354163  1
  C  C8  6  0.07916308  0.42157449  0.33525555  1
  C  C9  6  0.13348555  0.32200267  0.24156180  1
  C  C10  6  0.17344903  0.53079068  0.07219137  1
  C  C11  6  0.20068789  0.76976307  0.31163663  1
  N  N12  6  -0.00804355  0.26741178  0.39647034  1
  N  N13  6  0.01939896  0.43916798  0.02522433  1
  N  N14  6  0.06583193  0.33601040  0.31486846  1
  N  N15  6  0.09052452  0.46531323  0.14570426  1
  N  N16  6  0.09457236  0.30471825  -0.10782883  1
  N  N17  6  0.15601023  0.35047702  0.03674448  1
  N  N18  6  0.21250853  0.49970136  -0.07004497  1
  N  N19  6  0.22714469  0.53177040  -0.26382879  1
  O  O20  6  -0.06023355  0.28476894  0.46979339  1
  O  O21  6  -0.04886048  0.38030995  0.08819899  1
  O  O22  6  -0.01508800  0.19644941  0.38841109  1
  O  O23  6  0.03085530  0.47666625  -0.13501148  1
  O  O24  6  0.03142499  0.23766204  -0.05568886  1
  O  O25  6  0.10875572  0.33736967  -0.27442025  1
  O  O26  6  0.20813441  0.58680365  -0.30384038  1
  O  O27  6  0.24370650  0.73951576  -0.04732122  1
