###############################################################################################
#
# CIF file generated by modified CIFWriter class 
# in pymatgen (v2025.03.10) https://pymatgen.org/
#
###############################################################################################
data_PBE+MBD_tight_1bc04c80190cbe8
_symmetry_space_group_name_H-M   P3_121
_cell_length_a   7.96751241
_cell_length_b   7.96751241
_cell_length_c   33.22298346
_cell_angle_alpha   90.00000000
_cell_angle_beta   90.00000000
_cell_angle_gamma   120.00000000
_symmetry_Int_Tables_number   152
_chemical_formula_moiety   'C4 H8 N8 O8'
_chemical_formula_sum   'H48 C24 N48 O48'
_cell_volume   1826.47931765
_cell_formula_units_Z   6
loop_
 _symmetry_equiv_pos_site_id
 _symmetry_equiv_pos_as_xyz
  1  'x, y, z'
  2  '-y, x-y, z+1/3'
  3  '-x+y, -x, z+2/3'
  4  'y, x, -z'
  5  'x-y, -y, -z+2/3'
  6  '-x, -x+y, -z+1/3'
loop_
 _atom_site_type_symbol
 _atom_site_label
 _atom_site_symmetry_multiplicity
 _atom_site_fract_x
 _atom_site_fract_y
 _atom_site_fract_z
 _atom_site_occupancy
  H  H0  6  -0.12513483  0.54871435  0.90219470  1
  H  H1  6  0.04647642  0.71660710  0.93757469  1
  H  H2  6  0.07240109  0.42202054  0.25017383  1
  H  H3  6  0.07472708  0.34376933  0.99163264  1
  H  H4  6  0.08554942  0.50751754  0.19997730  1
  H  H5  6  0.10737200  0.37411835  0.62499008  1
  H  H6  6  0.15734764  0.59802483  0.99056944  1
  H  H7  6  0.18798180  0.64538004  0.30345806  1
  C  C8  6  0.01650393  0.59943160  0.91609948  1
  C  C9  6  0.13881886  0.47351918  0.97273960  1
  C  C10  6  0.16863735  0.52669545  0.22742009  1
  C  C11  6  0.23116266  0.51588133  0.61770499  1
  N  N12  6  -0.15718134  0.25716508  0.93573217  1
  N  N13  6  0.00339574  0.63749818  0.61748528  1
  N  N14  6  0.00757412  0.44015608  0.93953492  1
  N  N15  6  0.09550344  0.66846978  0.84456465  1
  N  N16  6  0.15082831  0.35446690  0.55189634  1
  N  N17  6  0.16244557  0.67706575  0.88481792  1
  N  N18  6  0.18666610  0.66805478  0.62742644  1
  N  N19  6  0.23419075  0.72006242  0.24272199  1
  O  O20  6  -0.12140308  0.47040090  0.60924781  1
  O  O21  6  -0.07831560  0.56477665  0.83873213  1
  O  O22  6  -0.01958046  0.77923789  0.61897462  1
  O  O23  6  0.01287346  0.21948530  0.56925939  1
  O  O24  6  0.14337983  -0.19605259  0.03561452  1
  O  O25  6  0.17762253  0.81195957  0.18285278  1
  O  O26  6  0.21855695  0.76372286  0.81926287  1
  O  O27  6  0.22435952  -0.25165765  0.09509325  1
