###############################################################################################
#
# CIF file generated by modified CIFWriter class 
# in pymatgen (v2025.03.10) https://pymatgen.org/
#
###############################################################################################
data_PBE+MBD_tight_1f094d36ea7b51c
_symmetry_space_group_name_H-M   P3_221
_cell_length_a   12.97405700
_cell_length_b   12.97405700
_cell_length_c   12.35514784
_cell_angle_alpha   90.00000000
_cell_angle_beta   90.00000000
_cell_angle_gamma   120.00000000
_symmetry_Int_Tables_number   154
_chemical_formula_moiety   'C4 H8 N8 O8'
_chemical_formula_sum   'H48 C24 N48 O48'
_cell_volume   1801.06829673
_cell_formula_units_Z   6
loop_
 _symmetry_equiv_pos_site_id
 _symmetry_equiv_pos_as_xyz
  1  'x, y, z'
  2  '-y, x-y, z+2/3'
  3  '-x+y, -x, z+1/3'
  4  'y, x, -z'
  5  'x-y, -y, -z+1/3'
  6  '-x, -x+y, -z+2/3'
loop_
 _atom_site_type_symbol
 _atom_site_label
 _atom_site_symmetry_multiplicity
 _atom_site_fract_x
 _atom_site_fract_y
 _atom_site_fract_z
 _atom_site_occupancy
  H  H0  6  -0.09175104  0.69278560  0.28581336  1
  H  H1  6  -0.02496107  0.46318745  0.15841484  1
  H  H2  6  -0.01423097  0.90279654  0.08908117  1
  H  H3  6  0.02537489  0.86037725  0.21215179  1
  H  H4  6  0.04785885  0.59004916  0.24504833  1
  H  H5  6  0.15599559  0.39425748  0.10009418  1
  H  H6  6  0.16992667  0.76522037  0.18072168  1
  H  H7  6  0.21685736  0.77391641  0.04339912  1
  C  C8  6  -0.14395208  0.63939125  0.21632194  1
  C  C9  6  -0.01106237  0.55230477  0.17439213  1
  C  C10  6  0.00220938  0.83615648  0.12683777  1
  C  C11  6  0.14071752  0.75305095  0.09569217  1
  N  N12  6  -0.23105396  0.42501147  0.18460262  1
  N  N13  6  -0.12697867  0.53814357  0.20201864  1
  N  N14  6  -0.10491122  0.72152847  0.12564352  1
  N  N15  6  0.04398598  0.57697805  -0.01910414  1
  N  N16  6  0.04906705  0.62963733  0.08321876  1
  N  N17  6  0.07494085  0.23704185  0.65958204  1
  N  N18  6  0.10118191  0.83743164  0.06994137  1
  N  N19  6  0.14320473  0.31414443  0.30268800  1
  O  O20  6  -0.21644667  0.34647171  0.14762282  1
  O  O21  6  -0.01765921  0.46854922  -0.02437005  1
  O  O22  6  -0.00067213  0.12989686  0.64906241  1
  O  O23  6  0.07555119  0.31892084  0.61052660  1
  O  O24  6  0.10134483  0.64635815  -0.09126392  1
  O  O25  6  0.11794386  0.24688353  0.38063134  1
  O  O26  6  0.14585992  0.41022262  0.29992118  1
  O  O27  6  0.25797238  0.58382311  0.11960429  1
