###############################################################################################
#
# CIF file generated by modified CIFWriter class 
# in pymatgen (v2025.03.10) https://pymatgen.org/
#
###############################################################################################
data_PBE+MBD_tight_251ef947ed75004
_symmetry_space_group_name_H-M   P6_2
_cell_length_a   19.49103095
_cell_length_b   19.49103095
_cell_length_c   5.84893032
_cell_angle_alpha   90.00000000
_cell_angle_beta   90.00000000
_cell_angle_gamma   120.00000000
_symmetry_Int_Tables_number   171
_chemical_formula_moiety   'C4 H8 N8 O8'
_chemical_formula_sum   'H48 C24 N48 O48'
_cell_volume   1924.31737542
_cell_formula_units_Z   6
loop_
 _symmetry_equiv_pos_site_id
 _symmetry_equiv_pos_as_xyz
  1  'x, y, z'
  2  'x-y, x, z+1/3'
  3  '-y, x-y, z+2/3'
  4  '-x, -y, z'
  5  '-x+y, -x, z+1/3'
  6  'y, -x+y, z+2/3'
loop_
 _atom_site_type_symbol
 _atom_site_label
 _atom_site_symmetry_multiplicity
 _atom_site_fract_x
 _atom_site_fract_y
 _atom_site_fract_z
 _atom_site_occupancy
  H  H0  6  -0.03049161  0.71718662  0.53678530  1
  H  H1  6  0.04720550  0.73959700  0.73677754  1
  H  H2  6  0.05011483  0.56791502  0.62844422  1
  H  H3  6  0.08888449  0.65685367  0.79125718  1
  H  H4  6  0.11172598  0.30242947  -0.00870940  1
  H  H5  6  0.15193862  0.33927523  0.26815101  1
  H  H6  6  0.23108905  0.46395988  0.32220035  1
  H  H7  6  0.25972785  0.53207577  0.08965797  1
  C  C8  6  0.03036211  0.72921816  0.55537522  1
  C  C9  6  0.08238707  0.63252561  0.61838201  1
  C  C10  6  0.16599569  0.83397090  0.42510464  1
  C  C11  6  0.21930016  0.73881249  0.48963832  1
  N  N12  6  0.01389303  0.63083053  0.27017440  1
  N  N13  6  0.03642149  0.65982724  0.48969436  1
  N  N14  6  0.04651729  0.83499231  0.29046193  1
  N  N15  6  0.08092671  0.79854457  0.42122711  1
  N  N16  6  0.15946334  0.65618651  0.52098918  1
  N  N17  6  0.17731996  0.59727058  0.45991396  1
  N  N18  6  0.19486253  0.78241845  0.33961044  1
  N  N19  6  0.19778570  0.77325211  0.10806848  1
  O  O20  6  -0.02522206  0.80684360  0.31143655  1
  O  O21  6  -0.02113413  0.65773661  0.15782372  1
  O  O22  6  0.03187660  0.58222279  0.20279326  1
  O  O23  6  0.09123832  0.89143854  0.17223553  1
  O  O24  6  0.12725004  0.52817318  0.50493531  1
  O  O25  6  0.17741462  0.81168407  -0.01609927  1
  O  O26  6  0.21915158  0.72696895  0.04069104  1
  O  O27  6  0.24197972  0.61917434  0.37141731  1
