###############################################################################################
#
# CIF file generated by modified CIFWriter class 
# in pymatgen (v2025.03.10) https://pymatgen.org/
#
###############################################################################################
data_PBE+MBD_tight_25c8a3ab1061ff3
_symmetry_space_group_name_H-M   P3_121
_cell_length_a   13.07979858
_cell_length_b   13.07979858
_cell_length_c   17.50243799
_cell_angle_alpha   90.00000000
_cell_angle_beta   90.00000000
_cell_angle_gamma   120.00000000
_symmetry_Int_Tables_number   152
_chemical_formula_moiety   'C4 H8 N8 O8'
_chemical_formula_sum   'H48 C24 N48 O48'
_cell_volume   2593.17180996
_cell_formula_units_Z   6
loop_
 _symmetry_equiv_pos_site_id
 _symmetry_equiv_pos_as_xyz
  1  'x, y, z'
  2  '-y, x-y, z+1/3'
  3  '-x+y, -x, z+2/3'
  4  'y, x, -z'
  5  'x-y, -y, -z+2/3'
  6  '-x, -x+y, -z+1/3'
loop_
 _atom_site_type_symbol
 _atom_site_label
 _atom_site_symmetry_multiplicity
 _atom_site_fract_x
 _atom_site_fract_y
 _atom_site_fract_z
 _atom_site_occupancy
  H  H0  6  -0.00238188  0.56575817  0.23922538  1
  H  H1  6  0.12782860  0.36151902  0.66200813  1
  H  H2  6  0.14344480  0.64484319  0.19855126  1
  H  H3  6  0.18230444  0.44973605  0.57758463  1
  H  H4  6  0.21330881  0.42715649  0.28374207  1
  H  H5  6  0.26089165  0.71808874  0.69519655  1
  H  H6  6  0.27321328  0.67585667  0.59953426  1
  H  H7  6  0.27410872  0.55288559  0.22241431  1
  C  C8  6  0.09156604  0.60069945  0.24969845  1
  C  C9  6  0.19944119  0.44335610  0.63833944  1
  C  C10  6  0.22368099  0.51444533  0.27499370  1
  C  C11  6  0.28262033  0.66198231  0.66043890  1
  N  N12  6  0.00876894  0.38670419  0.26564047  1
  N  N13  6  0.06327940  0.66552452  0.37437181  1
  N  N14  6  0.10668427  0.50083856  0.26863154  1
  N  N15  6  0.12004237  0.51551451  0.73985223  1
  N  N16  6  0.13252565  0.69022584  0.30871809  1
  N  N17  6  0.20118979  0.54023147  0.68010336  1
  N  N18  6  0.26385817  0.54922997  0.41049934  1
  N  N19  6  0.29099695  0.59279543  0.33733002  1
  O  O20  6  -0.08673189  0.37843414  0.24803565  1
  O  O21  6  -0.02961288  0.57003558  0.37480165  1
  O  O22  6  0.02494175  0.30439941  0.27968010  1
  O  O23  6  0.05040896  0.41081756  0.75314230  1
  O  O24  6  0.10125943  0.74024640  0.42495383  1
  O  O25  6  0.12321905  0.60002406  0.77241660  1
  O  O26  6  0.19788890  0.44226988  0.41889718  1
  O  O27  6  0.30836468  0.62219723  0.46296362  1
