###############################################################################################
#
# CIF file generated by modified CIFWriter class 
# in pymatgen (v2025.03.10) https://pymatgen.org/
#
###############################################################################################
data_PBE+MBD_tight_27834310822a603
_symmetry_space_group_name_H-M   P6_3
_cell_length_a   18.71176964
_cell_length_b   18.71176964
_cell_length_c   6.18907547
_cell_angle_alpha   90.00000000
_cell_angle_beta   90.00000000
_cell_angle_gamma   120.00000000
_symmetry_Int_Tables_number   173
_chemical_formula_moiety   'C4 H8 N8 O8'
_chemical_formula_sum   'H48 C24 N48 O48'
_cell_volume   1876.66232134
_cell_formula_units_Z   6
loop_
 _symmetry_equiv_pos_site_id
 _symmetry_equiv_pos_as_xyz
  1  'x, y, z'
  2  'x-y, x, z+1/2'
  3  '-y, x-y, z'
  4  '-x, -y, z+1/2'
  5  '-x+y, -x, z'
  6  'y, -x+y, z+1/2'
loop_
 _atom_site_type_symbol
 _atom_site_label
 _atom_site_symmetry_multiplicity
 _atom_site_fract_x
 _atom_site_fract_y
 _atom_site_fract_z
 _atom_site_occupancy
  H  H0  6  -0.06511423  0.70115294  0.88867335  1
  H  H1  6  0.01793056  0.72465368  1.07682276  1
  H  H2  6  0.01833576  0.54577083  0.99233123  1
  H  H3  6  0.07240862  0.64629961  1.10878796  1
  H  H4  6  0.12289372  0.28939428  0.70289265  1
  H  H5  6  0.16186576  0.82733046  0.95174311  1
  H  H6  6  0.21071908  0.74406145  0.97081307  1
  H  H7  6  0.24442765  0.71399537  0.73538439  1
  C  C8  6  -0.00267850  0.71098773  0.90765991  1
  C  C9  6  0.05181913  0.61160166  0.95677291  1
  C  C10  6  0.13957986  0.81747225  0.78448455  1
  C  C11  6  0.19207406  0.71454318  0.81151614  1
  N  N12  6  -0.07411190  0.57187859  0.75021727  1
  N  N13  6  -0.00302322  0.63490183  0.84985159  1
  N  N14  6  0.01781110  0.82107072  0.65054781  1
  N  N15  6  0.05142226  0.78229382  0.77931063  1
  N  N16  6  0.12521022  0.63021245  0.83421455  1
  N  N17  6  0.13655774  0.56639763  0.75782262  1
  N  N18  6  0.15149850  0.74579642  0.46924157  1
  N  N19  6  0.16816982  0.76502915  0.68499442  1
  O  O20  6  -0.12222187  0.59168950  0.67192554  1
  O  O21  6  -0.08221287  0.50276488  0.74735348  1
  O  O22  6  -0.05751408  0.78388264  0.63097577  1
  O  O23  6  0.06646935  0.88818826  0.57353587  1
  O  O24  6  0.07776073  0.49563614  0.77361236  1
  O  O25  6  0.12056519  0.78090132  0.36878945  1
  O  O26  6  0.16782380  0.69474056  0.39332913  1
  O  O27  6  0.20450663  0.58560131  0.68229418  1
