###############################################################################################
#
# CIF file generated by modified CIFWriter class 
# in pymatgen (v2025.03.10) https://pymatgen.org/
#
###############################################################################################
data_PBE+MBD_tight_2ac3f0d3aea285c
_symmetry_space_group_name_H-M   P6_1
_cell_length_a   7.97478687
_cell_length_b   7.97478687
_cell_length_c   32.99596142
_cell_angle_alpha   90.00000000
_cell_angle_beta   90.00000000
_cell_angle_gamma   120.00000000
_symmetry_Int_Tables_number   169
_chemical_formula_moiety   'C4 H8 N8 O8'
_chemical_formula_sum   'H48 C24 N48 O48'
_cell_volume   1817.31239460
_cell_formula_units_Z   6
loop_
 _symmetry_equiv_pos_site_id
 _symmetry_equiv_pos_as_xyz
  1  'x, y, z'
  2  'x-y, x, z+1/6'
  3  '-y, x-y, z+1/3'
  4  '-x, -y, z+1/2'
  5  '-x+y, -x, z+2/3'
  6  'y, -x+y, z+5/6'
loop_
 _atom_site_type_symbol
 _atom_site_label
 _atom_site_symmetry_multiplicity
 _atom_site_fract_x
 _atom_site_fract_y
 _atom_site_fract_z
 _atom_site_occupancy
  H  H0  6  -0.12108481  0.63198510  0.24564772  1
  H  H1  6  -0.05265915  0.20042980  0.29061516  1
  H  H2  6  0.00994134  0.46736316  0.94755405  1
  H  H3  6  0.02634898  0.67269066  0.28969211  1
  H  H4  6  0.03168637  0.49576154  0.56580659  1
  H  H5  6  0.06116949  0.43309847  0.31480464  1
  H  H6  6  0.12352473  0.49645748  0.61521887  1
  H  H7  6  0.23253777  0.59613887  0.97470681  1
  C  C8  6  0.00503099  0.62871957  0.25765420  1
  C  C9  6  0.04699242  0.35515876  0.28637929  1
  C  C10  6  0.15727423  0.59049984  0.94638403  1
  C  C11  6  0.16136073  0.52862120  0.58303615  1
  N  N12  6  -0.12034612  0.32050128  0.22236532  1
  N  N13  6  -0.04011702  0.74594795  0.94218031  1
  N  N14  6  -0.03019419  0.43184741  0.25650038  1
  N  N15  6  0.12049777  0.26329754  0.53901976  1
  N  N16  6  0.14428339  0.76521282  0.94179722  1
  N  N17  6  0.17219469  0.76495410  0.23397705  1
  N  N18  6  0.17950206  0.51560905  0.87580734  1
  N  N19  6  0.26576434  0.56599925  0.91378546  1
  O  O20  6  -0.18052742  0.58105811  0.94195754  1
  O  O21  6  -0.15950332  0.40080538  0.19498705  1
  O  O22  6  -0.04718946  0.89630122  0.94244370  1
  O  O23  6  -0.02417112  0.82741338  0.19597414  1
  O  O24  6  -0.02323261  0.26535628  0.52595997  1
  O  O25  6  0.00737260  0.47077648  0.87397610  1
  O  O26  6  0.15234158  0.30631833  0.05570977  1
  O  O27  6  0.23981462  0.71895757  0.51390373  1
