###############################################################################################
#
# CIF file generated by modified CIFWriter class 
# in pymatgen (v2025.03.10) https://pymatgen.org/
#
###############################################################################################
data_PBE+MBD_tight_2e8a1f62675c5f7
_symmetry_space_group_name_H-M   P3_221
_cell_length_a   12.08066916
_cell_length_b   12.08066916
_cell_length_c   14.93522387
_cell_angle_alpha   90.00000000
_cell_angle_beta   90.00000000
_cell_angle_gamma   120.00000000
_symmetry_Int_Tables_number   154
_chemical_formula_moiety   'C4 H8 N8 O8'
_chemical_formula_sum   'H48 C24 N48 O48'
_cell_volume   1887.66250998
_cell_formula_units_Z   6
loop_
 _symmetry_equiv_pos_site_id
 _symmetry_equiv_pos_as_xyz
  1  'x, y, z'
  2  '-y, x-y, z+2/3'
  3  '-x+y, -x, z+1/3'
  4  'y, x, -z'
  5  'x-y, -y, -z+1/3'
  6  '-x, -x+y, -z+2/3'
loop_
 _atom_site_type_symbol
 _atom_site_label
 _atom_site_symmetry_multiplicity
 _atom_site_fract_x
 _atom_site_fract_y
 _atom_site_fract_z
 _atom_site_occupancy
  H  H0  6  -0.14427024  0.50517658  0.19093556  1
  H  H1  6  -0.05573459  0.56540870  -0.05225913  1
  H  H2  6  -0.03996052  0.48433119  0.04263896  1
  H  H3  6  0.04105408  0.59289356  0.25898634  1
  H  H4  6  0.10719969  0.75240947  0.30202923  1
  H  H5  6  0.13603927  0.56798745  0.11844426  1
  H  H6  6  0.17953339  0.40466209  0.15296542  1
  H  H7  6  0.27276580  0.70807654  0.07453893  1
  C  C8  6  -0.13904765  0.59212127  0.16276832  1
  C  C9  6  -0.03535520  0.57295900  0.01948699  1
  C  C10  6  0.07500570  0.69336335  0.24181893  1
  C  C11  6  0.17628548  0.66946136  0.10151408  1
  N  N12  6  -0.13447494  0.58931960  0.06474260  1
  N  N13  6  -0.02948225  0.69980285  0.20173856  1
  N  N14  6  -0.02638587  0.81925653  0.20392645  1
  N  N15  6  0.09233907  0.67675747  0.03618078  1
  N  N16  6  0.14683525  0.77697960  -0.02733366  1
  N  N17  6  0.18634500  0.49191612  0.88970341  1
  N  N18  6  0.18635509  0.74036023  0.18349872  1
  N  N19  6  0.20375713  0.45368864  0.31317253  1
  O  O20  6  0.06229036  0.17872513  0.16451281  1
  O  O21  6  0.06682158  0.90634724  0.24120659  1
  O  O22  6  0.07506802  0.77901315  -0.08356380  1
  O  O23  6  0.12439869  0.46601389  0.26807136  1
  O  O24  6  0.14709099  0.40917473  0.64831640  1
  O  O25  6  0.15381434  0.46135435  0.96850077  1
  O  O26  6  0.15844647  0.55886968  0.84385931  1
  O  O27  6  0.22259142  0.47647920  0.39354884  1
