###############################################################################################
#
# CIF file generated by modified CIFWriter class 
# in pymatgen (v2025.03.10) https://pymatgen.org/
#
###############################################################################################
data_PBE+MBD_tight_303a07b8f2df760
_symmetry_space_group_name_H-M   P-3
_cell_length_a   14.06515828
_cell_length_b   14.06515828
_cell_length_c   12.89855000
_cell_angle_alpha   90.00000000
_cell_angle_beta   90.00000000
_cell_angle_gamma   120.00000000
_symmetry_Int_Tables_number   147
_chemical_formula_moiety   'C4 H8 N8 O8'
_chemical_formula_sum   'H48 C24 N48 O48'
_cell_volume   2209.83969745
_cell_formula_units_Z   6
loop_
 _symmetry_equiv_pos_site_id
 _symmetry_equiv_pos_as_xyz
  1  'x, y, z'
  2  '-x, -y, -z'
  3  '-y, x-y, z'
  4  'y, -x+y, -z'
  5  '-x+y, -x, z'
  6  'x-y, x, -z'
loop_
 _atom_site_type_symbol
 _atom_site_label
 _atom_site_symmetry_multiplicity
 _atom_site_fract_x
 _atom_site_fract_y
 _atom_site_fract_z
 _atom_site_occupancy
  H  H0  6  0.02878603  0.88267216  0.67373846  1
  H  H1  6  0.05961230  0.64165379  0.52966760  1
  H  H2  6  0.11044637  0.26986537  0.67475226  1
  H  H3  6  0.12690648  0.35286383  0.83061688  1
  H  H4  6  0.13910072  0.82514997  0.94234726  1
  H  H5  6  0.17719821  0.75975214  0.58188992  1
  H  H6  6  0.21087287  0.61861147  0.78746464  1
  H  H7  6  0.24871120  0.50094155  0.73145882  1
  C  C8  6  0.07154643  0.83796057  0.69220325  1
  C  C9  6  0.09426070  0.69201258  0.59901098  1
  C  C10  6  0.14673128  0.80833752  0.86098344  1
  C  C11  6  0.18353302  0.67544967  0.76343065  1
  N  N12  6  -0.05715219  0.72244347  0.55694133  1
  N  N13  6  -0.03475338  0.79241531  0.85245079  1
  N  N14  6  0.02649405  0.74040282  0.62556691  1
  N  N15  6  0.03329503  0.51276221  0.67868653  1
  N  N16  6  0.06167579  0.81282121  0.80149125  1
  N  N17  6  0.10412539  0.62667822  0.67996178  1
  N  N18  6  0.14277436  0.65030184  0.94981266  1
  N  N19  6  0.14279735  0.70280452  0.85500307  1
  O  O20  6  -0.10136776  0.77826023  0.56706796  1
  O  O21  6  -0.08156495  0.65033805  0.49073220  1
  O  O22  6  -0.04314346  0.47727071  0.61693333  1
  O  O23  6  -0.04277953  0.76538235  0.94379046  1
  O  O24  6  0.05530252  0.45837470  0.73867478  1
  O  O25  6  0.09388666  -0.10192680  0.19874678  1
  O  O26  6  0.11910092  0.68232805  1.02818193  1
  O  O27  6  0.16497422  0.57637270  0.94349683  1
