###############################################################################################
#
# CIF file generated by modified CIFWriter class 
# in pymatgen (v2025.03.10) https://pymatgen.org/
#
###############################################################################################
data_PBE+MBD_tight_30ae3eff9a92753
_symmetry_space_group_name_H-M   P31c
_cell_length_a   12.52640467
_cell_length_b   12.52640467
_cell_length_c   15.19309254
_cell_angle_alpha   90.00000000
_cell_angle_beta   90.00000000
_cell_angle_gamma   120.00000000
_symmetry_Int_Tables_number   159
_chemical_formula_moiety   'C4 H8 N8 O8'
_chemical_formula_sum   'H48 C24 N48 O48'
_cell_volume   2064.57036839
_cell_formula_units_Z   6
loop_
 _symmetry_equiv_pos_site_id
 _symmetry_equiv_pos_as_xyz
  1  'x, y, z'
  2  '-y, x-y, z'
  3  '-x+y, -x, z'
  4  'y, x, z+1/2'
  5  'x-y, -y, z+1/2'
  6  '-x, -x+y, z+1/2'
loop_
 _atom_site_type_symbol
 _atom_site_label
 _atom_site_symmetry_multiplicity
 _atom_site_fract_x
 _atom_site_fract_y
 _atom_site_fract_z
 _atom_site_occupancy
  H  H0  6  -0.09836703  0.55820086  0.22579859  1
  H  H1  6  -0.09156222  0.52322798  0.07724008  1
  H  H2  6  -0.07474006  0.74991353  0.20017641  1
  H  H3  6  -0.07361485  0.71416742  0.05165212  1
  H  H4  6  0.00728301  0.54394426  0.29735963  1
  H  H5  6  0.02408559  0.49171041  0.03588731  1
  H  H6  6  0.05291404  0.88205175  0.24963830  1
  H  H7  6  0.05332691  0.82323604  -0.01336687  1
  C  C8  6  -0.00053280  0.59068134  0.23907737  1
  C  C9  6  0.00792993  0.55604835  0.07443723  1
  C  C10  6  0.02580810  0.80002309  0.20949138  1
  C  C11  6  0.02721253  0.76283470  0.04408468  1
  N  N12  6  0.04814042  0.55811347  0.16403810  1
  N  N13  6  0.05428087  0.24746996  0.11477131  1
  N  N14  6  0.06133263  0.72250448  0.25748597  1
  N  N15  6  0.06791164  0.67431754  0.02911851  1
  N  N16  6  0.07940223  0.83816349  0.12237776  1
  N  N17  6  0.11560313  0.76383964  0.34110045  1
  N  N18  6  0.12881148  0.68194571  -0.05104911  1
  N  N19  6  0.14512054  0.53481715  0.17919694  1
  O  O20  6  0.00115407  0.24411202  0.18419288  1
  O  O21  6  0.01905574  0.25278742  0.04037033  1
  O  O22  6  0.12704154  0.68963068  0.38714199  1
  O  O23  6  0.12969519  0.27648079  0.36125289  1
  O  O24  6  0.14910383  0.59815791  -0.06749999  1
  O  O25  6  0.15539280  0.77184692  -0.09804827  1
  O  O26  6  0.17483434  0.53488021  0.25589272  1
  O  O27  6  0.19010644  0.51430724  0.11395488  1
