###############################################################################################
#
# CIF file generated by modified CIFWriter class 
# in pymatgen (v2025.03.10) https://pymatgen.org/
#
###############################################################################################
data_PBE+MBD_tight_328b99dfc33da0b
_symmetry_space_group_name_H-M   P3_121
_cell_length_a   6.73002168
_cell_length_b   6.73002168
_cell_length_c   83.62707057
_cell_angle_alpha   90.00000000
_cell_angle_beta   90.00000000
_cell_angle_gamma   120.00000000
_symmetry_Int_Tables_number   152
_chemical_formula_moiety   'C4 H8 N8 O8'
_chemical_formula_sum   'H48 C24 N48 O48'
_cell_volume   3280.27642355
_cell_formula_units_Z   6
loop_
 _symmetry_equiv_pos_site_id
 _symmetry_equiv_pos_as_xyz
  1  'x, y, z'
  2  '-y, x-y, z+1/3'
  3  '-x+y, -x, z+2/3'
  4  'y, x, -z'
  5  'x-y, -y, -z+2/3'
  6  '-x, -x+y, -z+1/3'
loop_
 _atom_site_type_symbol
 _atom_site_label
 _atom_site_symmetry_multiplicity
 _atom_site_fract_x
 _atom_site_fract_y
 _atom_site_fract_z
 _atom_site_occupancy
  H  H0  6  0.00670140  -4.30982026  0.60926004  1
  H  H1  6  0.18602569  -3.34896449  0.70213495  1
  H  H2  6  0.24013714  -4.05537785  0.65266158  1
  H  H3  6  0.26165015  -3.55245204  0.70933357  1
  H  H4  6  0.28614474  -4.25095294  0.61521020  1
  H  H5  6  0.37751294  -3.51794107  0.73374240  1
  H  H6  6  0.38828418  -4.14889595  0.63974081  1
  H  H7  6  0.47423535  -3.25963690  0.74514521  1
  C  C8  6  0.17769064  -4.17487372  0.61288365  1
  C  C9  6  0.32659297  -4.02652898  0.64111735  1
  C  C10  6  0.32844622  -3.37233486  0.70593431  1
  C  C11  6  0.49710608  -3.33187019  0.73404327  1
  N  N12  6  0.02294474  -3.98061650  0.62904273  1
  N  N13  6  0.12186994  -4.04842923  0.58647164  1
  N  N14  6  0.16619662  -4.07240980  0.62806384  1
  N  N15  6  0.26843507  -4.01756678  0.59961085  1
  N  N16  6  0.42524461  -3.23431671  0.67846248  1
  N  N17  6  0.43663219  -3.23808024  0.72036032  1
  N  N18  6  0.47695785  -3.52637939  0.61346302  1
  N  N19  6  0.47988172  -3.31370766  0.69235447  1
  O  O20  6  -0.09381980  -4.00302442  0.61699992  1
  O  O21  6  -0.07092711  -4.21804626  0.58690948  1
  O  O22  6  0.02454108  -3.88348030  0.64150138  1
  O  O23  6  0.20260058  -3.90691199  0.57572990  1
  O  O24  6  0.24241015  -3.23427495  0.67846292  1
  O  O25  6  0.37301740  -3.51858206  0.60159352  1
  O  O26  6  0.43824282  -3.73714606  0.66600744  1
  O  O27  6  0.48986932  -2.92564863  0.70739808  1
