###############################################################################################
#
# CIF file generated by modified CIFWriter class 
# in pymatgen (v2025.03.10) https://pymatgen.org/
#
###############################################################################################
data_PBE+MBD_tight_351041165eef91a
_symmetry_space_group_name_H-M   P6_3
_cell_length_a   12.74731922
_cell_length_b   12.74731922
_cell_length_c   13.05825924
_cell_angle_alpha   90.00000000
_cell_angle_beta   90.00000000
_cell_angle_gamma   120.00000000
_symmetry_Int_Tables_number   173
_chemical_formula_moiety   'C4 H8 N8 O8'
_chemical_formula_sum   'H48 C24 N48 O48'
_cell_volume   1837.61125020
_cell_formula_units_Z   6
loop_
 _symmetry_equiv_pos_site_id
 _symmetry_equiv_pos_as_xyz
  1  'x, y, z'
  2  'x-y, x, z+1/2'
  3  '-y, x-y, z'
  4  '-x, -y, z+1/2'
  5  '-x+y, -x, z'
  6  'y, -x+y, z+1/2'
loop_
 _atom_site_type_symbol
 _atom_site_label
 _atom_site_symmetry_multiplicity
 _atom_site_fract_x
 _atom_site_fract_y
 _atom_site_fract_z
 _atom_site_occupancy
  H  H0  6  -0.04591652  0.51899371  0.77364211  1
  H  H1  6  0.07408502  0.54008901  0.47705501  1
  H  H2  6  0.08785754  0.30461687  0.83941521  1
  H  H3  6  0.11173946  0.56889896  0.75942285  1
  H  H4  6  0.12849435  0.84669367  0.53487049  1
  H  H5  6  0.18178972  0.44597811  0.77724470  1
  H  H6  6  0.18245821  0.56479708  0.57368684  1
  H  H7  6  0.19157869  0.76252329  0.59121748  1
  C  C8  6  0.01970512  0.50190319  0.73414691  1
  C  C9  6  0.08729636  0.50721698  0.55038357  1
  C  C10  6  0.09793531  0.35739223  0.77019340  1
  C  C11  6  0.14713238  0.34710106  0.58527160  1
  N  N12  6  -0.10777449  0.30554968  0.81719356  1
  N  N13  6  -0.08266396  0.54147306  0.59020866  1
  N  N14  6  -0.03096316  0.30130006  0.48338461  1
  N  N15  6  -0.00116027  0.38314482  0.76303604  1
  N  N16  6  0.00970765  0.51877105  0.62523815  1
  N  N17  6  0.06882386  0.88110173  0.70618045  1
  N  N18  6  0.06931813  0.38638517  0.53945722  1
  N  N19  6  0.10567831  0.29049142  0.68423200  1
  O  O20  6  -0.17962072  0.34164135  0.83282509  1
  O  O21  6  -0.15527931  0.53610922  0.65409065  1
  O  O22  6  -0.11928933  0.20821578  0.84408036  1
  O  O23  6  -0.08912657  0.34081484  0.43784620  1
  O  O24  6  -0.07887296  0.56805767  0.49954198  1
  O  O25  6  -0.05140304  0.19729853  0.48478499  1
  O  O26  6  -0.00230673  0.85037247  0.63423079  1
  O  O27  6  0.05213095  0.90152541  0.79374285  1
