###############################################################################################
#
# CIF file generated by modified CIFWriter class 
# in pymatgen (v2025.03.10) https://pymatgen.org/
#
###############################################################################################
data_PBE+MBD_tight_3d5350b86232efb
_symmetry_space_group_name_H-M   P6_3/m
_cell_length_a   13.97297457
_cell_length_b   13.97297457
_cell_length_c   11.02720020
_cell_angle_alpha   90.00000000
_cell_angle_beta   90.00000000
_cell_angle_gamma   120.00000000
_symmetry_Int_Tables_number   176
_chemical_formula_moiety   'C4 H8 N8 O8'
_chemical_formula_sum   'H48 C24 N48 O48'
_cell_volume   1864.54825938
_cell_formula_units_Z   6
loop_
 _symmetry_equiv_pos_site_id
 _symmetry_equiv_pos_as_xyz
  1  'x, y, z'
  2  '-x, -y, -z+599/903'
  3  'x-y, x, z+1/2'
  4  '-x+y, -x, -z+41/251'
  5  '-y, x-y, z'
  6  'y, -x+y, -z+599/903'
  7  '-x, -y, z+1/2'
  8  'x, y, -z+41/251'
  9  '-x+y, -x, z'
  10  'x-y, x, -z+599/903'
  11  'y, -x+y, z+1/2'
  12  '-y, x-y, -z+41/251'
loop_
 _atom_site_type_symbol
 _atom_site_label
 _atom_site_symmetry_multiplicity
 _atom_site_fract_x
 _atom_site_fract_y
 _atom_site_fract_z
 _atom_site_occupancy
  H  H0  12  -0.13615297  0.27572714  0.68206625  1
  H  H1  12  -0.07880612  0.20270099  0.40373191  1
  H  H2  12  -0.00079170  0.49567677  0.67701794  1
  H  H3  12  0.12544466  0.54185632  0.40449912  1
  C  C4  12  -0.06102219  0.27062919  0.69707743  1
  C  C5  12  0.06638925  0.47878602  0.46619155  1
  N  N6  12  0.02222198  0.37235646  0.40740560  1
  N  N7  12  0.05955471  0.36767199  0.29159072  1
  N  N8  6  -0.02695854  0.24916224  0.58173002  1
  N  N9  6  0.02470156  0.18269752  0.58188982  1
  N  N10  6  0.11906960  0.48512565  0.58150445  1
  N  N11  6  0.22164833  0.49394158  0.58141218  1
  O  O12  12  0.02233047  0.27700550  0.91888598  1
  O  O13  12  0.04461198  0.15895453  0.68160462  1
  O  O14  12  0.12595165  0.45698114  0.24364282  1
  O  O15  12  0.23406233  0.73692070  0.68126907  1
