###############################################################################################
#
# CIF file generated by modified CIFWriter class 
# in pymatgen (v2025.03.10) https://pymatgen.org/
#
###############################################################################################
data_PBE+MBD_tight_3df64d73b5cbbf3
_symmetry_space_group_name_H-M   P6_2
_cell_length_a   13.05992115
_cell_length_b   13.05992115
_cell_length_c   12.38775526
_cell_angle_alpha   90.00000000
_cell_angle_beta   90.00000000
_cell_angle_gamma   120.00000000
_symmetry_Int_Tables_number   171
_chemical_formula_moiety   'C4 H8 N8 O8'
_chemical_formula_sum   'H48 C24 N48 O48'
_cell_volume   1829.80309583
_cell_formula_units_Z   6
loop_
 _symmetry_equiv_pos_site_id
 _symmetry_equiv_pos_as_xyz
  1  'x, y, z'
  2  'x-y, x, z+1/3'
  3  '-y, x-y, z+2/3'
  4  '-x, -y, z'
  5  '-x+y, -x, z+1/3'
  6  'y, -x+y, z+2/3'
loop_
 _atom_site_type_symbol
 _atom_site_label
 _atom_site_symmetry_multiplicity
 _atom_site_fract_x
 _atom_site_fract_y
 _atom_site_fract_z
 _atom_site_occupancy
  H  H0  6  -0.02521916  0.30317116  0.85846256  1
  H  H1  6  0.01197336  0.37927387  0.98540116  1
  H  H2  6  0.08464716  0.58594973  0.41591135  1
  H  H3  6  0.08566923  0.32291992  1.11631350  1
  H  H4  6  0.09104544  0.18992027  1.09777792  1
  H  H5  6  0.22100202  0.58040398  0.98587402  1
  H  H6  6  0.22732868  0.70928198  0.44096727  1
  H  H7  6  0.28932905  0.62094722  0.85666911  1
  C  C8  6  0.04659790  0.35425882  0.91554003  1
  C  C9  6  0.12527167  0.28033396  1.06913785  1
  C  C10  6  0.14557848  0.67783615  0.39398807  1
  C  C11  6  0.24134239  0.54711598  0.91234190  1
  N  N12  6  -0.02739909  0.69025545  0.45377329  1
  N  N13  6  0.09172588  0.28074704  0.95729544  1
  N  N14  6  0.09203158  0.74777071  0.41977466  1
  N  N15  6  0.09717255  0.64025005  0.20304186  1
  N  N16  6  0.09788595  0.20052417  0.88699970  1
  N  N17  6  0.11841142  0.47478001  0.74829012  1
  N  N18  6  0.13351266  0.46145915  0.85990731  1
  N  N19  6  0.18274966  0.68401615  0.28095944  1
  O  O20  6  -0.07963120  0.58175968  0.45793451  1
  O  O21  6  -0.06756746  0.75351172  0.47928235  1
  O  O22  6  -0.00572643  0.60467586  0.23208108  1
  O  O23  6  0.00772059  0.87914043  0.26081987  1
  O  O24  6  0.02675340  0.39843257  0.70719451  1
  O  O25  6  0.08258741  0.21152991  0.79058024  1
  O  O26  6  0.12928794  0.64127774  0.10883845  1
  O  O27  6  0.19613482  0.56422601  0.70410656  1
