###############################################################################################
#
# CIF file generated by modified CIFWriter class 
# in pymatgen (v2025.03.10) https://pymatgen.org/
#
###############################################################################################
data_PBE+MBD_tight_43e8803b65b724e
_symmetry_space_group_name_H-M   P6
_cell_length_a   19.28025816
_cell_length_b   19.28025816
_cell_length_c   6.45677375
_cell_angle_alpha   90.00000000
_cell_angle_beta   90.00000000
_cell_angle_gamma   120.00000000
_symmetry_Int_Tables_number   168
_chemical_formula_moiety   'C4 H8 N8 O8'
_chemical_formula_sum   'H48 C24 N48 O48'
_cell_volume   2078.60462793
_cell_formula_units_Z   6
loop_
 _symmetry_equiv_pos_site_id
 _symmetry_equiv_pos_as_xyz
  1  'x, y, z'
  2  'x-y, x, z'
  3  '-y, x-y, z'
  4  '-x, -y, z'
  5  '-x+y, -x, z'
  6  'y, -x+y, z'
loop_
 _atom_site_type_symbol
 _atom_site_label
 _atom_site_symmetry_multiplicity
 _atom_site_fract_x
 _atom_site_fract_y
 _atom_site_fract_z
 _atom_site_occupancy
  H  H0  6  0.07346556  0.68865425  0.31466589  1
  H  H1  6  0.08954479  0.67377873  0.57958574  1
  H  H2  6  0.11550311  0.85445529  0.74055465  1
  H  H3  6  0.11629913  0.45484635  0.85084375  1
  H  H4  6  0.11832346  0.76684721  0.81304064  1
  H  H5  6  0.21526980  0.47063660  0.88221919  1
  H  H6  6  0.23217471  0.69221397  0.65761866  1
  H  H7  6  0.28576715  0.58045925  0.43123927  1
  C  C8  6  0.11643302  0.71166396  0.44248958  1
  C  C9  6  0.14566654  0.82012882  0.71334242  1
  C  C10  6  0.16211448  0.44435448  0.78242147  1
  C  C11  6  0.25386838  0.72821977  0.51518564  1
  N  N12  6  0.05286749  0.30762552  0.84615677  1
  N  N13  6  0.12917017  0.35879536  0.76510806  1
  N  N14  6  0.13015943  0.47941622  0.44626145  1
  N  N15  6  0.13383482  0.79149339  0.50079767  1
  N  N16  6  0.15182530  0.30642303  0.34435312  1
  N  N17  6  0.18651834  0.70692974  0.37762667  1
  N  N18  6  0.18876690  0.48585834  0.58450535  1
  N  N19  6  0.19051444  0.68387052  0.17345843  1
  O  O20  6  0.01483412  0.33924489  0.90968773  1
  O  O21  6  0.02983145  0.23592359  0.84697077  1
  O  O22  6  0.06063630  0.44340739  0.50824381  1
  O  O23  6  0.08375132  0.25652745  0.39706414  1
  O  O24  6  0.13228197  0.66528988  0.06154671  1
  O  O25  6  0.15371203  0.51068345  0.27526378  1
  O  O26  6  0.15410422  0.82451233  0.16673168  1
  O  O27  6  0.25163562  0.68319199  0.12253800  1
