###############################################################################################
#
# CIF file generated by modified CIFWriter class 
# in pymatgen (v2025.03.10) https://pymatgen.org/
#
###############################################################################################
data_PBE+MBD_tight_4a7a0302d733dcd
_symmetry_space_group_name_H-M   P-3
_cell_length_a   15.99185013
_cell_length_b   15.99185013
_cell_length_c   9.07159467
_cell_angle_alpha   90.00000000
_cell_angle_beta   90.00000000
_cell_angle_gamma   120.00000000
_symmetry_Int_Tables_number   147
_chemical_formula_moiety   'C4 H8 N8 O8'
_chemical_formula_sum   'H48 C24 N48 O48'
_cell_volume   2009.14689677
_cell_formula_units_Z   6
loop_
 _symmetry_equiv_pos_site_id
 _symmetry_equiv_pos_as_xyz
  1  'x, y, z'
  2  '-x, -y, -z'
  3  '-y, x-y, z'
  4  'y, -x+y, -z'
  5  '-x+y, -x, z'
  6  'x-y, x, -z'
loop_
 _atom_site_type_symbol
 _atom_site_label
 _atom_site_symmetry_multiplicity
 _atom_site_fract_x
 _atom_site_fract_y
 _atom_site_fract_z
 _atom_site_occupancy
  H  H0  6  -0.02476733  0.78550659  0.25402414  1
  H  H1  6  0.00055088  0.70013327  0.16389097  1
  H  H2  6  0.06854386  0.62113336  0.31296509  1
  H  H3  6  0.08277590  0.64796723  0.50638374  1
  H  H4  6  0.12379837  0.32139329  -0.01751118  1
  H  H5  6  0.12621076  0.75002816  0.02066643  1
  H  H6  6  0.19545978  0.67549032  0.17104623  1
  H  H7  6  0.24911116  0.56336725  0.24658003  1
  C  C8  6  0.02842478  0.76216053  0.23912011  1
  C  C9  6  0.09585360  0.67907807  0.39574629  1
  C  C10  6  0.17199556  0.82178500  0.06930454  1
  C  C11  6  0.24319063  0.74319613  0.22910233  1
  N  N12  6  -0.01130694  0.73147534  0.50169852  1
  N  N13  6  0.04451998  0.73192651  0.38259753  1
  N  N14  6  0.06719748  0.19024782  0.17105003  1
  N  N15  6  0.09982645  0.44772485  0.11183032  1
  N  N16  6  0.11426932  0.84003721  0.17236228  1
  N  N17  6  0.17769981  0.43337679  0.13507731  1
  N  N18  6  0.19952889  0.73739778  0.37150516  1
  N  N19  6  0.22409364  0.48386267  0.49452445  1
  O  O20  6  -0.06127767  0.76862773  0.48216403  1
  O  O21  6  -0.00653553  0.69263165  0.61646751  1
  O  O22  6  0.00564872  0.19415815  0.09437891  1
  O  O23  6  0.03485326  0.39085020  0.03042430  1
  O  O24  6  0.05683577  0.12288063  0.24611601  1
  O  O25  6  0.10277140  0.51845842  0.17145403  1
  O  O26  6  0.18807744  0.53531734  0.47366620  1
  O  O27  6  0.22014816  0.77061331  0.61277248  1
