###############################################################################################
#
# CIF file generated by modified CIFWriter class 
# in pymatgen (v2025.03.10) https://pymatgen.org/
#
###############################################################################################
data_PBE+MBD_tight_4ce5f567ee3006c
_symmetry_space_group_name_H-M   P3_212
_cell_length_a   7.80689608
_cell_length_b   7.80689608
_cell_length_c   33.38708444
_cell_angle_alpha   90.00000000
_cell_angle_beta   90.00000000
_cell_angle_gamma   120.00000000
_symmetry_Int_Tables_number   153
_chemical_formula_moiety   'C4 H8 N8 O8'
_chemical_formula_sum   'H48 C24 N48 O48'
_cell_volume   1762.24352519
_cell_formula_units_Z   6
loop_
 _symmetry_equiv_pos_site_id
 _symmetry_equiv_pos_as_xyz
  1  'x, y, z'
  2  '-y, x-y, z+2/3'
  3  '-x+y, -x, z+1/3'
  4  '-y, -x, -z+1/3'
  5  '-x+y, y, -z+2/3'
  6  'x, x-y, -z'
loop_
 _atom_site_type_symbol
 _atom_site_label
 _atom_site_symmetry_multiplicity
 _atom_site_fract_x
 _atom_site_fract_y
 _atom_site_fract_z
 _atom_site_occupancy
  H  H0  6  -0.14043818  0.30263548  0.19486017  1
  H  H1  6  -0.04087165  0.28018414  0.31362982  1
  H  H2  6  0.09563128  0.83491176  0.13363141  1
  H  H3  6  0.10901976  0.68060913  0.78802518  1
  H  H4  6  0.12325995  0.73241017  0.01551626  1
  H  H5  6  0.16473821  0.75116801  0.71937202  1
  H  H6  6  0.23333387  0.51561897  0.88066560  1
  H  H7  6  0.25109312  0.66200733  0.05047245  1
  C  C8  6  -0.03886577  0.40958163  0.21660331  1
  C  C9  6  0.02229672  0.62701657  0.70931543  1
  C  C10  6  0.15458736  0.78696105  0.21918489  1
  C  C11  6  0.21581067  0.44628327  0.70668969  1
  N  N12  6  -0.29025015  0.15266501  0.25972529  1
  N  N13  6  -0.20068580  0.60478084  0.20562053  1
  N  N14  6  -0.10909777  0.32858262  0.25625639  1
  N  N15  6  -0.02540677  0.84709517  0.06653121  1
  N  N16  6  -0.02186438  0.37712567  0.79063102  1
  N  N17  6  -0.01837281  0.40591977  0.65318533  1
  N  N18  6  0.05921235  0.58094187  0.30826020  1
  N  N19  6  0.14789906  0.83922119  0.07323412  1
  O  O20  6  -0.37859519  0.07192549  0.22860514  1
  O  O21  6  -0.35373011  0.20101964  0.79212724  1
  O  O22  6  -0.34730571  0.09262726  0.29378554  1
  O  O23  6  -0.18478727  0.04789368  0.80005412  1
  O  O24  6  -0.13476204  0.45300481  0.63957896  1
  O  O25  6  -0.11806971  0.03156746  0.90395256  1
  O  O26  6  -0.06986160  0.07946700  0.96849488  1
  O  O27  6  0.03726481  0.73538921  0.36343520  1
