###############################################################################################
#
# CIF file generated by modified CIFWriter class 
# in pymatgen (v2025.03.10) https://pymatgen.org/
#
###############################################################################################
data_PBE+MBD_tight_519e718734c119
_symmetry_space_group_name_H-M   P-3
_cell_length_a   18.85255787
_cell_length_b   18.85255787
_cell_length_c   6.58656815
_cell_angle_alpha   90.00000000
_cell_angle_beta   90.00000000
_cell_angle_gamma   120.00000000
_symmetry_Int_Tables_number   147
_chemical_formula_moiety   'C4 H8 N8 O8'
_chemical_formula_sum   'H48 C24 N48 O48'
_cell_volume   2027.35772905
_cell_formula_units_Z   6
loop_
 _symmetry_equiv_pos_site_id
 _symmetry_equiv_pos_as_xyz
  1  'x, y, z'
  2  '-x, -y, -z'
  3  '-y, x-y, z'
  4  'y, -x+y, -z'
  5  '-x+y, -x, z'
  6  'x-y, x, -z'
loop_
 _atom_site_type_symbol
 _atom_site_label
 _atom_site_symmetry_multiplicity
 _atom_site_fract_x
 _atom_site_fract_y
 _atom_site_fract_z
 _atom_site_occupancy
  H  H0  6  -0.02286787  0.30815410  0.50137387  1
  H  H1  6  -0.01963829  0.34805294  0.74943078  1
  H  H2  6  0.04982465  0.33082636  0.98953073  1
  H  H3  6  0.07230869  0.50410700  0.79125949  1
  H  H4  6  0.10225493  0.27579874  0.93923859  1
  H  H5  6  0.12442140  0.55953953  0.56664469  1
  H  H6  6  0.14258580  0.48793723  1.02947102  1
  H  H7  6  0.24967508  0.52543441  0.99952581  1
  C  C8  6  0.01723615  0.35090449  0.61737547  1
  C  C9  6  0.09838916  0.33000783  0.89954766  1
  C  C10  6  0.10744105  0.50477360  0.65734766  1
  C  C11  6  0.18895377  0.48354466  0.93807131  1
  N  N12  6  0.03954436  0.44445781  0.33440726  1
  N  N13  6  0.05645091  0.43335092  0.53234375  1
  N  N14  6  0.07509296  0.32689655  0.68793977  1
  N  N15  6  0.11615455  0.30749284  0.54301254  1
  N  N16  6  0.15089809  0.76106845  1.02944103  1
  N  N17  6  0.17695107  0.40131970  0.94857919  1
  N  N18  6  0.18082054  0.50725044  0.73322141  1
  N  N19  6  0.24521982  0.52916212  0.59844180  1
  O  O20  6  -0.00510683  0.38293718  0.23354642  1
  O  O21  6  0.06941901  0.51570514  0.27199789  1
  O  O22  6  0.09363433  0.77463145  1.03981674  1
  O  O23  6  0.09922663  0.31140770  0.36429117  1
  O  O24  6  0.12274136  0.83363124  0.60582071  1
  O  O25  6  0.14934990  0.69828574  1.08751618  1
  O  O26  6  0.22583150  0.69209346  0.66951192  1
  O  O27  6  0.23368039  0.54121268  0.42149080  1
