###############################################################################################
#
# CIF file generated by modified CIFWriter class 
# in pymatgen (v2025.03.10) https://pymatgen.org/
#
###############################################################################################
data_PBE+MBD_tight_51dd85fb4164b76
_symmetry_space_group_name_H-M   P3_221
_cell_length_a   10.36098076
_cell_length_b   10.36098076
_cell_length_c   18.00659566
_cell_angle_alpha   90.00000000
_cell_angle_beta   90.00000000
_cell_angle_gamma   120.00000000
_symmetry_Int_Tables_number   154
_chemical_formula_moiety   'C4 H8 N8 O8'
_chemical_formula_sum   'H48 C24 N48 O48'
_cell_volume   1674.03285984
_cell_formula_units_Z   6
loop_
 _symmetry_equiv_pos_site_id
 _symmetry_equiv_pos_as_xyz
  1  'x, y, z'
  2  '-y, x-y, z+2/3'
  3  '-x+y, -x, z+1/3'
  4  'y, x, -z'
  5  'x-y, -y, -z+1/3'
  6  '-x, -x+y, -z+2/3'
loop_
 _atom_site_type_symbol
 _atom_site_label
 _atom_site_symmetry_multiplicity
 _atom_site_fract_x
 _atom_site_fract_y
 _atom_site_fract_z
 _atom_site_occupancy
  H  H0  6  -0.08502093  0.26773741  0.74786357  1
  H  H1  6  0.05056044  -0.06031822  0.42832534  1
  H  H2  6  0.05765539  0.42380906  0.44314424  1
  H  H3  6  0.08913305  0.30314925  0.70980224  1
  H  H4  6  0.10581939  0.21343754  0.60230491  1
  H  H5  6  0.12662884  0.65837415  0.62666428  1
  H  H6  6  0.19630815  0.44652505  0.50966689  1
  H  H7  6  0.21538919  0.54989780  0.61800174  1
  C  C8  6  -0.01329488  0.30656951  0.69875612  1
  C  C9  6  -0.00756252  0.17080039  0.58069962  1
  C  C10  6  0.07640724  0.40070684  0.50020502  1
  C  C11  6  0.10716246  0.54482186  0.62100611  1
  N  N12  6  -0.10728146  0.46729273  0.53965160  1
  N  N13  6  -0.08708503  0.20534685  0.63742853  1
  N  N14  6  -0.08185880  0.14768378  0.44974251  1
  N  N15  6  -0.03122508  0.52516562  0.73426759  1
  N  N16  6  0.00027167  0.23909221  0.50940008  1
  N  N17  6  0.02516600  0.46101899  0.68613670  1
  N  N18  6  0.02948219  0.47670785  0.55183315  1
  N  N19  6  0.15794993  -0.23689522  0.37549995  1
  O  O20  6  -0.18167333  0.39007704  0.48738040  1
  O  O21  6  -0.14267302  0.53554207  0.58364523  1
  O  O22  6  -0.12072186  0.44440031  0.78186311  1
  O  O23  6  -0.09328288  0.20900270  0.39403178  1
  O  O24  6  0.01264668  -0.13123712  0.54294161  1
  O  O25  6  0.01468410  0.65971697  0.72711533  1
  O  O26  6  0.06370379  -0.29794715  0.42466468  1
  O  O27  6  0.21413758  -0.29417431  0.33750537  1
