###############################################################################################
#
# CIF file generated by modified CIFWriter class 
# in pymatgen (v2025.03.10) https://pymatgen.org/
#
###############################################################################################
data_PBE+MBD_tight_52bebbaba5d0600
_symmetry_space_group_name_H-M   P6_2
_cell_length_a   14.83695699
_cell_length_b   14.83695699
_cell_length_c   9.95260297
_cell_angle_alpha   90.00000000
_cell_angle_beta   90.00000000
_cell_angle_gamma   120.00000000
_symmetry_Int_Tables_number   171
_chemical_formula_moiety   'C4 H8 N8 O8'
_chemical_formula_sum   'H48 C24 N48 O48'
_cell_volume   1897.39165675
_cell_formula_units_Z   6
loop_
 _symmetry_equiv_pos_site_id
 _symmetry_equiv_pos_as_xyz
  1  'x, y, z'
  2  'x-y, x, z+1/3'
  3  '-y, x-y, z+2/3'
  4  '-x, -y, z'
  5  '-x+y, -x, z+1/3'
  6  'y, -x+y, z+2/3'
loop_
 _atom_site_type_symbol
 _atom_site_label
 _atom_site_symmetry_multiplicity
 _atom_site_fract_x
 _atom_site_fract_y
 _atom_site_fract_z
 _atom_site_occupancy
  H  H0  6  -0.07715430  0.14732546  0.43351460  1
  H  H1  6  -0.03795226  0.41786496  0.27957448  1
  H  H2  6  -0.02099492  0.26174247  0.53917642  1
  H  H3  6  -0.00938129  0.41358040  0.45505846  1
  H  H4  6  0.05913060  0.77694164  0.86537601  1
  H  H5  6  0.14157161  0.32556915  0.60707547  1
  H  H6  6  0.15589520  0.48992737  0.52725614  1
  H  H7  6  0.25874522  0.56462730  0.41199239  1
  C  C8  6  -0.01784610  0.22966949  0.44079559  1
  C  C9  6  0.00320728  0.39586932  0.35158297  1
  C  C10  6  0.14216326  0.82779361  0.84527488  1
  C  C11  6  0.19327634  0.48699362  0.43329266  1
  N  N12  6  -0.12937699  0.22856536  0.25630535  1
  N  N13  6  -0.03906032  0.28483122  0.33675222  1
  N  N14  6  0.07049724  0.90984465  0.69681078  1
  N  N15  6  0.08454889  0.24035193  0.43146958  1
  N  N16  6  0.11364634  0.66790395  0.73013851  1
  N  N17  6  0.11457258  0.45708191  0.32796799  1
  N  N18  6  0.14709972  0.47211177  0.19326222  1
  N  N19  6  0.18290209  0.76616268  0.78373583  1
  O  O20  6  -0.15005736  0.27962970  0.17802596  1
  O  O21  6  -0.01500000  0.83265159  0.71651991  1
  O  O22  6  0.01751367  0.10759639  0.28737600  1
  O  O23  6  0.02287377  0.64743952  0.71361477  1
  O  O24  6  0.08007349  0.45067251  0.10801844  1
  O  O25  6  0.13413094  0.31184859  -0.06271402  1
  O  O26  6  0.14795557  0.60987574  0.70515568  1
  O  O27  6  0.24072280  0.50593649  0.17372747  1
