###############################################################################################
#
# CIF file generated by modified CIFWriter class 
# in pymatgen (v2025.03.10) https://pymatgen.org/
#
###############################################################################################
data_PBE+MBD_tight_5ad939699b3602
_symmetry_space_group_name_H-M   P31c
_cell_length_a   13.57591663
_cell_length_b   13.57591663
_cell_length_c   12.14281990
_cell_angle_alpha   90.00000000
_cell_angle_beta   90.00000000
_cell_angle_gamma   120.00000000
_symmetry_Int_Tables_number   159
_chemical_formula_moiety   'C4 H8 N8 O8'
_chemical_formula_sum   'H48 C24 N48 O48'
_cell_volume   1938.15501845
_cell_formula_units_Z   6
loop_
 _symmetry_equiv_pos_site_id
 _symmetry_equiv_pos_as_xyz
  1  'x, y, z'
  2  '-y, x-y, z'
  3  '-x+y, -x, z'
  4  'y, x, z+1/2'
  5  'x-y, -y, z+1/2'
  6  '-x, -x+y, z+1/2'
loop_
 _atom_site_type_symbol
 _atom_site_label
 _atom_site_symmetry_multiplicity
 _atom_site_fract_x
 _atom_site_fract_y
 _atom_site_fract_z
 _atom_site_occupancy
  H  H0  6  -0.13438537  0.58212890  0.20332811  1
  H  H1  6  -0.00574892  0.73044618  0.28868725  1
  H  H2  6  0.02357405  0.52731670  0.15435771  1
  H  H3  6  0.02839399  0.86840473  0.24306419  1
  H  H4  6  0.03914297  0.50957890  0.01097544  1
  H  H5  6  0.14970237  0.67302173  0.24076365  1
  H  H6  6  0.19768313  0.40052603  0.58500692  1
  H  H7  6  0.21870159  0.49050698  0.17057057  1
  C  C8  6  -0.12154304  0.61557276  0.11899056  1
  C  C9  6  0.02803826  0.56245139  0.07194352  1
  C  C10  6  0.02992456  0.79131838  0.22048742  1
  C  C11  6  0.17908774  0.73758273  0.17543111  1
  N  N12  6  -0.13787886  0.50555049  -0.04790484  1
  N  N13  6  -0.07931871  0.55736464  0.04914563  1
  N  N14  6  -0.04230806  0.73660515  0.12609963  1
  N  N15  6  -0.02832677  0.80232700  0.03354969  1
  N  N16  6  0.06323578  0.29548889  0.21088134  1
  N  N17  6  0.12847978  0.67607900  0.07354199  1
  N  N18  6  0.14787113  0.82243249  0.20266463  1
  N  N19  6  0.18038820  0.72619523  -0.02558796  1
  O  O20  6  -0.23147024  0.49723660  -0.06090886  1
  O  O21  6  -0.09246757  0.75300016  -0.04449798  1
  O  O22  6  -0.09234159  0.47004370  -0.11202727  1
  O  O23  6  -0.00468680  0.19752335  0.23806746  1
  O  O24  6  0.03972013  0.37054945  0.19222755  1
  O  O25  6  0.04771932  0.90201500  0.03694688  1
  O  O26  6  0.12930270  0.67633465  -0.11011626  1
  O  O27  6  0.18457204  0.45652663  -0.02090287  1
