###############################################################################################
#
# CIF file generated by modified CIFWriter class 
# in pymatgen (v2025.03.10) https://pymatgen.org/
#
###############################################################################################
data_PBE+MBD_tight_5af6d011a98caf2
_symmetry_space_group_name_H-M   P6_5
_cell_length_a   7.44931916
_cell_length_b   7.44931916
_cell_length_c   37.44977855
_cell_angle_alpha   90.00000000
_cell_angle_beta   90.00000000
_cell_angle_gamma   120.00000000
_symmetry_Int_Tables_number   170
_chemical_formula_moiety   'C4 H8 N8 O8'
_chemical_formula_sum   'H48 C24 N48 O48'
_cell_volume   1799.75359112
_cell_formula_units_Z   6
loop_
 _symmetry_equiv_pos_site_id
 _symmetry_equiv_pos_as_xyz
  1  'x, y, z'
  2  'x-y, x, z+5/6'
  3  '-y, x-y, z+2/3'
  4  '-x, -y, z+1/2'
  5  '-x+y, -x, z+1/3'
  6  'y, -x+y, z+1/6'
loop_
 _atom_site_type_symbol
 _atom_site_label
 _atom_site_symmetry_multiplicity
 _atom_site_fract_x
 _atom_site_fract_y
 _atom_site_fract_z
 _atom_site_occupancy
  H  H0  6  -0.11461411  0.47413913  0.17049451  1
  H  H1  6  0.05497284  0.28880915  0.87166221  1
  H  H2  6  0.10737282  0.44103315  0.08230680  1
  H  H3  6  0.11640087  0.38431937  0.12842087  1
  H  H4  6  0.15573782  0.67721855  0.20124992  1
  H  H5  6  0.17081065  -0.25874844  0.98098383  1
  H  H6  6  0.18789359  0.78772426  0.80649319  1
  H  H7  6  0.20685499  0.61425573  0.49422156  1
  C  C8  6  -0.10793121  0.57999364  0.14949183  1
  C  C9  6  0.11532263  0.49689967  0.10956505  1
  C  C10  6  0.17766516  0.38825772  0.85306732  1
  C  C11  6  0.26039595  0.69601491  0.81352042  1
  N  N12  6  -0.20448800  0.47428889  0.08709908  1
  N  N13  6  -0.06813867  0.51422522  0.11538852  1
  N  N14  6  -0.06304987  0.51996573  0.84788214  1
  N  N15  6  0.04333677  0.10471783  0.81006487  1
  N  N16  6  0.05089000  0.78656224  0.16052290  1
  N  N17  6  0.11824271  0.52791043  0.83670518  1
  N  N18  6  0.15297624  0.51726105  0.75679900  1
  N  N19  6  0.30994907  0.68961212  0.11476964  1
  O  O20  6  -0.17795064  0.37700127  0.86779335  1
  O  O21  6  -0.16127009  0.42393894  0.05846269  1
  O  O22  6  -0.09652748  0.65694755  0.83707264  1
  O  O23  6  -0.00549858  0.52774247  0.76093224  1
  O  O24  6  0.01334974  -0.06591853  0.95288279  1
  O  O25  6  0.07002843  0.19913322  0.98661626  1
  O  O26  6  0.15320821  -0.36070017  0.92634758  1
  O  O27  6  0.18410408  0.42118244  0.73313634  1
