###############################################################################################
#
# CIF file generated by modified CIFWriter class 
# in pymatgen (v2025.03.10) https://pymatgen.org/
#
###############################################################################################
data_PBE+MBD_tight_5af9b47fd9301d0
_symmetry_space_group_name_H-M   P6_4
_cell_length_a   13.01354688
_cell_length_b   13.01354688
_cell_length_c   12.92413548
_cell_angle_alpha   90.00000000
_cell_angle_beta   90.00000000
_cell_angle_gamma   120.00000000
_symmetry_Int_Tables_number   172
_chemical_formula_moiety   'C4 H8 N8 O8'
_chemical_formula_sum   'H48 C24 N48 O48'
_cell_volume   1895.49872021
_cell_formula_units_Z   6
loop_
 _symmetry_equiv_pos_site_id
 _symmetry_equiv_pos_as_xyz
  1  'x, y, z'
  2  'x-y, x, z+2/3'
  3  '-y, x-y, z+1/3'
  4  '-x, -y, z'
  5  '-x+y, -x, z+2/3'
  6  'y, -x+y, z+1/3'
loop_
 _atom_site_type_symbol
 _atom_site_label
 _atom_site_symmetry_multiplicity
 _atom_site_fract_x
 _atom_site_fract_y
 _atom_site_fract_z
 _atom_site_occupancy
  H  H0  6  -0.00497322  0.73751844  1.05715704  1
  H  H1  6  0.00829389  0.86876931  0.99991824  1
  H  H2  6  0.04786737  0.61010898  0.92636921  1
  H  H3  6  0.09659689  0.67743809  0.80124182  1
  H  H4  6  0.10157020  0.35405889  0.53029171  1
  H  H5  6  0.12912605  0.75550839  1.16962836  1
  H  H6  6  0.16792094  0.62443618  1.04361540  1
  H  H7  6  0.31913989  0.63862859  0.34132682  1
  C  C8  6  0.04954818  0.81356706  1.00676299  1
  C  C9  6  0.10130157  0.69414798  0.88461878  1
  C  C10  6  0.16751474  0.37480829  0.46961029  1
  C  C11  6  0.25004552  0.70380091  1.01867642  1
  N  N12  6  0.00581179  0.24635577  0.35466454  1
  N  N13  6  0.01372773  0.80940209  0.81791328  1
  N  N14  6  0.05383181  0.77161843  0.90335838  1
  N  N15  6  0.12070327  0.28573742  0.38950460  1
  N  N16  6  0.18044921  0.49586832  0.19469527  1
  N  N17  6  0.19944880  0.57341885  0.50157885  1
  N  N18  6  0.20282870  0.49380887  0.42970245  1
  N  N19  6  0.22238363  0.74009418  0.92151680  1
  O  O20  6  -0.05142752  0.28499128  0.39859669  1
  O  O21  6  -0.03093693  0.87076617  0.83673379  1
  O  O22  6  -0.02656892  0.17718818  0.28079857  1
  O  O23  6  0.02517559  0.77558345  0.73217110  1
  O  O24  6  0.13431095  0.53031616  0.57668386  1
  O  O25  6  0.14691787  0.43721989  0.11372752  1
  O  O26  6  0.14902215  0.56534226  0.22604102  1
  O  O27  6  0.26210372  0.68021420  0.48291190  1
