###############################################################################################
#
# CIF file generated by modified CIFWriter class 
# in pymatgen (v2025.03.10) https://pymatgen.org/
#
###############################################################################################
data_PBE+MBD_tight_5d3fd98c34c769f
_symmetry_space_group_name_H-M   P-3
_cell_length_a   19.90506356
_cell_length_b   19.90506356
_cell_length_c   6.39614316
_cell_angle_alpha   90.00000000
_cell_angle_beta   90.00000000
_cell_angle_gamma   120.00000000
_symmetry_Int_Tables_number   147
_chemical_formula_moiety   'C4 H8 N8 O8'
_chemical_formula_sum   'H48 C24 N48 O48'
_cell_volume   2194.70394746
_cell_formula_units_Z   6
loop_
 _symmetry_equiv_pos_site_id
 _symmetry_equiv_pos_as_xyz
  1  'x, y, z'
  2  '-x, -y, -z'
  3  '-y, x-y, z'
  4  'y, -x+y, -z'
  5  '-x+y, -x, z'
  6  'x-y, x, -z'
loop_
 _atom_site_type_symbol
 _atom_site_label
 _atom_site_symmetry_multiplicity
 _atom_site_fract_x
 _atom_site_fract_y
 _atom_site_fract_z
 _atom_site_occupancy
  H  H0  6  0.01855477  0.30612719  0.71660080  1
  H  H1  6  0.02087913  0.35313753  0.95669796  1
  H  H2  6  0.08210914  0.50471566  0.92995841  1
  H  H3  6  0.10622880  0.37196743  1.19516312  1
  H  H4  6  0.11329192  0.54349976  0.67233418  1
  H  H5  6  0.16465909  0.82836937  1.15671173  1
  H  H6  6  0.16609110  0.51982105  1.16556242  1
  H  H7  6  0.26683545  0.57321022  1.10570702  1
  C  C8  6  0.05393271  0.35629463  0.81584629  1
  C  C9  6  0.11186209  0.50229122  0.78785000  1
  C  C10  6  0.15365048  0.37635716  1.09753915  1
  C  C11  6  0.21199670  0.52137248  1.06720142  1
  N  N12  6  0.04462647  0.41731300  0.49003184  1
  N  N13  6  0.06964330  0.42517588  0.69667204  1
  N  N14  6  0.12253873  0.35484062  0.88699338  1
  N  N15  6  0.15776942  0.32644606  0.75131278  1
  N  N16  6  0.17376656  0.70856321  1.17983614  1
  N  N17  6  0.19003401  0.52384555  0.85220306  1
  N  N18  6  0.22012226  0.45429037  1.11104712  1
  N  N19  6  0.24462304  0.54027863  0.69808282  1
  O  O20  6  0.01203679  0.35170480  0.41439855  1
  O  O21  6  0.05646991  0.47670451  0.39752931  1
  O  O22  6  0.10875299  0.78817544  0.82276789  1
  O  O23  6  0.11301392  0.70618345  1.23066501  1
  O  O24  6  0.13134077  0.31031333  0.57287384  1
  O  O25  6  0.18603569  0.65400429  1.18769199  1
  O  O26  6  0.22242287  0.53468164  0.51612575  1
  O  O27  6  0.24755286  0.68961810  0.75634443  1
