###############################################################################################
#
# CIF file generated by modified CIFWriter class 
# in pymatgen (v2025.03.10) https://pymatgen.org/
#
###############################################################################################
data_PBE+MBD_tight_6403b0e84f35764
_symmetry_space_group_name_H-M   P6_5
_cell_length_a   7.83423849
_cell_length_b   7.83423849
_cell_length_c   33.91523124
_cell_angle_alpha   90.00000000
_cell_angle_beta   90.00000000
_cell_angle_gamma   120.00000000
_symmetry_Int_Tables_number   170
_chemical_formula_moiety   'C4 H8 N8 O8'
_chemical_formula_sum   'H48 C24 N48 O48'
_cell_volume   1802.68145322
_cell_formula_units_Z   6
loop_
 _symmetry_equiv_pos_site_id
 _symmetry_equiv_pos_as_xyz
  1  'x, y, z'
  2  'x-y, x, z+5/6'
  3  '-y, x-y, z+2/3'
  4  '-x, -y, z+1/2'
  5  '-x+y, -x, z+1/3'
  6  'y, -x+y, z+1/6'
loop_
 _atom_site_type_symbol
 _atom_site_label
 _atom_site_symmetry_multiplicity
 _atom_site_fract_x
 _atom_site_fract_y
 _atom_site_fract_z
 _atom_site_occupancy
  H  H0  6  -0.13344473  0.45501496  0.96015927  1
  H  H1  6  -0.11282241  0.39625520  0.26477116  1
  H  H2  6  -0.00065207  0.90955631  0.31286725  1
  H  H3  6  0.04531926  0.49153616  0.30696724  1
  H  H4  6  0.08747747  0.54921846  0.98841873  1
  H  H5  6  0.11390622  0.77865275  0.33273903  1
  H  H6  6  0.13970512  0.52222001  0.58078395  1
  H  H7  6  0.22827682  0.60133551  0.62968382  1
  C  C8  6  0.01325702  0.47133677  0.96118130  1
  C  C9  6  0.02272815  0.52059845  0.27626615  1
  C  C10  6  0.09418236  0.84793758  0.30624130  1
  C  C11  6  0.27068900  0.61325079  0.59849352  1
  N  N12  6  -0.10043536  0.72040852  0.24588851  1
  N  N13  6  -0.01082093  0.27492048  0.96089675  1
  N  N14  6  0.00310268  0.69466358  0.27667899  1
  N  N15  6  0.05422240  0.54270658  0.89099851  1
  N  N16  6  0.11398505  0.31591366  0.12942339  1
  N  N17  6  0.13267884  0.59192691  0.92860075  1
  N  N18  6  0.14106961  0.38592483  0.22523880  1
  N  N19  6  0.18410019  0.53938758  0.25173263  1
  O  O20  6  -0.15912927  0.59679437  0.21934588  1
  O  O21  6  -0.11796657  0.40736614  0.88816383  1
  O  O22  6  -0.04999003  0.16855939  0.13222228  1
  O  O23  6  -0.03256761  0.27258279  0.21769649  1
  O  O24  6  0.01188886  -0.12434296  0.08147795  1
  O  O25  6  0.09578900  0.71768454  0.54455813  1
  O  O26  6  0.14791201  0.48711812  0.12793447  1
  O  O27  6  0.16399603  0.63628119  0.86347638  1
