###############################################################################################
#
# CIF file generated by modified CIFWriter class 
# in pymatgen (v2025.03.10) https://pymatgen.org/
#
###############################################################################################
data_PBE+MBD_tight_67972b910daeaf4
_symmetry_space_group_name_H-M   P6_2
_cell_length_a   12.49564086
_cell_length_b   12.49564086
_cell_length_c   17.05929012
_cell_angle_alpha   90.00000000
_cell_angle_beta   90.00000000
_cell_angle_gamma   120.00000000
_symmetry_Int_Tables_number   171
_chemical_formula_moiety   'C4 H8 N8 O8'
_chemical_formula_sum   'H48 C24 N48 O48'
_cell_volume   2306.79316700
_cell_formula_units_Z   6
loop_
 _symmetry_equiv_pos_site_id
 _symmetry_equiv_pos_as_xyz
  1  'x, y, z'
  2  'x-y, x, z+1/3'
  3  '-y, x-y, z+2/3'
  4  '-x, -y, z'
  5  '-x+y, -x, z+1/3'
  6  'y, -x+y, z+2/3'
loop_
 _atom_site_type_symbol
 _atom_site_label
 _atom_site_symmetry_multiplicity
 _atom_site_fract_x
 _atom_site_fract_y
 _atom_site_fract_z
 _atom_site_occupancy
  H  H0  6  -0.00670653  0.68567378  0.17157718  1
  H  H1  6  -0.00173195  0.12565937  0.83411548  1
  H  H2  6  0.00046245  0.85565239  0.13850577  1
  H  H3  6  0.00711236  0.79314212  -0.00653088  1
  H  H4  6  0.00866659  0.62499484  0.02412339  1
  H  H5  6  0.09337234  0.22849868  0.60320094  1
  H  H6  6  0.11077897  0.69160077  0.23448237  1
  H  H7  6  0.14189334  0.61116179  0.00337059  1
  C  C8  6  0.08287813  0.18393978  0.80127507  1
  C  C9  6  0.09249867  0.71730828  0.17681966  1
  C  C10  6  0.10725690  0.85889894  -0.00712088  1
  C  C11  6  0.10828360  0.66489852  0.03479828  1
  N  N12  6  -0.06779191  0.08782869  0.69547248  1
  N  N13  6  0.04654738  0.18281908  0.71948556  1
  N  N14  6  0.08174664  0.36121568  0.85953190  1
  N  N15  6  0.12935525  0.65715676  0.11844652  1
  N  N16  6  0.14917126  0.30590645  0.83502257  1
  N  N17  6  0.15789638  0.45048383  0.64496209  1
  N  N18  6  0.15996962  0.56924621  0.14398971  1
  N  N19  6  0.16921962  0.78997316  0.00614329  1
  O  O20  6  -0.03048096  0.30226129  0.84775513  1
  O  O21  6  0.02423581  0.16624203  0.41359460  1
  O  O22  6  0.05487751  0.39168582  0.61590111  1
  O  O23  6  0.07254439  0.15987911  0.29094513  1
  O  O24  6  0.14055026  0.46289849  0.89108589  1
  O  O25  6  0.16571438  0.55693906  0.21488035  1
  O  O26  6  0.17585133  0.50881060  0.09271554  1
  O  O27  6  0.22095849  0.56218058  0.65413847  1
