###############################################################################################
#
# CIF file generated by modified CIFWriter class 
# in pymatgen (v2025.03.10) https://pymatgen.org/
#
###############################################################################################
data_PBE+MBD_tight_695140e18004d45
_symmetry_space_group_name_H-M   P3_121
_cell_length_a   12.72099388
_cell_length_b   12.72099388
_cell_length_c   16.70615818
_cell_angle_alpha   90.00000000
_cell_angle_beta   90.00000000
_cell_angle_gamma   120.00000000
_symmetry_Int_Tables_number   152
_chemical_formula_moiety   'C4 H8 N8 O8'
_chemical_formula_sum   'H48 C24 N48 O48'
_cell_volume   2341.25818126
_cell_formula_units_Z   6
loop_
 _symmetry_equiv_pos_site_id
 _symmetry_equiv_pos_as_xyz
  1  'x, y, z'
  2  '-y, x-y, z+1/3'
  3  '-x+y, -x, z+2/3'
  4  'y, x, -z'
  5  'x-y, -y, -z+2/3'
  6  '-x, -x+y, -z+1/3'
loop_
 _atom_site_type_symbol
 _atom_site_label
 _atom_site_symmetry_multiplicity
 _atom_site_fract_x
 _atom_site_fract_y
 _atom_site_fract_z
 _atom_site_occupancy
  H  H0  6  -0.25328194  0.36365193  0.39964300  1
  H  H1  6  -0.12965246  0.51504270  0.41103954  1
  H  H2  6  -0.03557928  0.43858660  0.58779289  1
  H  H3  6  -0.03039976  0.55638537  0.52618395  1
  H  H4  6  0.03116631  0.58644201  0.30701351  1
  H  H5  6  0.03716697  0.47370785  0.24598030  1
  H  H6  6  0.13026369  0.64567680  0.42222275  1
  H  H7  6  0.25462541  0.61908840  0.43392811  1
  C  C8  6  -0.15451247  0.41956685  0.40307589  1
  C  C9  6  -0.01919013  0.47608452  0.52726283  1
  C  C10  6  0.02056084  0.49516558  0.30636175  1
  C  C11  6  0.15579370  0.57561056  0.43051619  1
  N  N12  6  -0.18099901  0.32716749  0.26998803  1
  N  N13  6  -0.14826468  0.26557776  0.48671051  1
  N  N14  6  -0.10883656  0.38787363  0.47334405  1
  N  N15  6  -0.10345319  0.40602457  0.32872111  1
  N  N16  6  0.10501130  0.51154053  0.50506910  1
  N  N17  6  0.11046040  0.49761275  0.36051410  1
  N  N18  6  0.15103821  0.41561927  0.34742641  1
  N  N19  6  0.18259510  0.51048222  0.56382563  1
  O  O20  6  -0.13521439  0.32287725  0.20641814  1
  O  O21  6  -0.10082634  0.24094778  0.54185202  1
  O  O22  6  0.10463263  0.34361314  0.29212430  1
  O  O23  6  0.13692260  0.46076831  0.62751700  1
  O  O24  6  0.19253318  0.76846144  0.05958679  1
  O  O25  6  0.19281430  -0.22887863  0.55842748  1
  O  O26  6  0.26764564  -0.28999960  0.71342929  1
  O  O27  6  0.26829856  0.70842181  0.21386038  1
