###############################################################################################
#
# CIF file generated by modified CIFWriter class 
# in pymatgen (v2025.03.10) https://pymatgen.org/
#
###############################################################################################
data_PBE+MBD_tight_69af43609335ab
_symmetry_space_group_name_H-M   P6_2
_cell_length_a   15.68368427
_cell_length_b   15.68368427
_cell_length_c   8.50930459
_cell_angle_alpha   90.00000000
_cell_angle_beta   90.00000000
_cell_angle_gamma   120.00000000
_symmetry_Int_Tables_number   171
_chemical_formula_moiety   'C4 H8 N8 O8'
_chemical_formula_sum   'H48 C24 N48 O48'
_cell_volume   1812.67891327
_cell_formula_units_Z   6
loop_
 _symmetry_equiv_pos_site_id
 _symmetry_equiv_pos_as_xyz
  1  'x, y, z'
  2  'x-y, x, z+1/3'
  3  '-y, x-y, z+2/3'
  4  '-x, -y, z'
  5  '-x+y, -x, z+1/3'
  6  'y, -x+y, z+2/3'
loop_
 _atom_site_type_symbol
 _atom_site_label
 _atom_site_symmetry_multiplicity
 _atom_site_fract_x
 _atom_site_fract_y
 _atom_site_fract_z
 _atom_site_occupancy
  H  H0  6  -0.00143155  0.27364551  0.14744672  1
  H  H1  6  0.01245430  0.81937547  0.65837333  1
  H  H2  6  0.05963555  0.32202375  0.33140179  1
  H  H3  6  0.06980494  0.58982751  0.63143007  1
  H  H4  6  0.11943762  0.83275112  0.75515541  1
  H  H5  6  0.14816287  0.69338871  0.75051670  1
  H  H6  6  0.19738202  0.49563962  0.33433082  1
  H  H7  6  0.21949825  0.56267857  0.15425634  1
  C  C8  6  0.06997417  0.31676716  0.20521023  1
  C  C9  6  0.07679811  0.81038875  0.64552713  1
  C  C10  6  0.11171234  0.67010929  0.63560668  1
  C  C11  6  0.20648671  0.49343389  0.20647566  1
  N  N12  6  -0.05712060  0.63947595  0.61424839  1
  N  N13  6  0.04322733  0.70676462  0.61669899  1
  N  N14  6  0.07352026  0.43442727  0.00983471  1
  N  N15  6  0.09149068  0.18975764  0.07653866  1
  N  N16  6  0.11699539  0.41480910  0.13961721  1
  N  N17  6  0.12617935  0.26640035  0.18711230  1
  N  N18  6  0.16251580  0.67159810  0.36554541  1
  N  N19  6  0.18890410  0.70775348  0.51758412  1
  O  O20  6  -0.11366559  0.67264770  0.62517541  1
  O  O21  6  -0.08311990  0.55189219  0.59710955  1
  O  O22  6  0.00201868  0.36280660  -0.04921165  1
  O  O23  6  0.00791680  0.86795470  0.41002144  1
  O  O24  6  0.02573481  0.18006873  -0.01230809  1
  O  O25  6  0.07614371  0.60762182  0.34403486  1
  O  O26  6  0.10941533  0.52018234  -0.03116639  1
  O  O27  6  0.22808135  0.70675761  0.26567551  1
