###############################################################################################
#
# CIF file generated by modified CIFWriter class 
# in pymatgen (v2025.03.10) https://pymatgen.org/
#
###############################################################################################
data_PBE+MBD_tight_69d277fa2c8fcc7
_symmetry_space_group_name_H-M   P6_4
_cell_length_a   19.30339269
_cell_length_b   19.30339269
_cell_length_c   6.44321128
_cell_angle_alpha   90.00000000
_cell_angle_beta   90.00000000
_cell_angle_gamma   120.00000000
_symmetry_Int_Tables_number   172
_chemical_formula_moiety   'C4 H8 N8 O8'
_chemical_formula_sum   'H48 C24 N48 O48'
_cell_volume   2079.21928798
_cell_formula_units_Z   6
loop_
 _symmetry_equiv_pos_site_id
 _symmetry_equiv_pos_as_xyz
  1  'x, y, z'
  2  'x-y, x, z+2/3'
  3  '-y, x-y, z+1/3'
  4  '-x, -y, z'
  5  '-x+y, -x, z+2/3'
  6  'y, -x+y, z+1/3'
loop_
 _atom_site_type_symbol
 _atom_site_label
 _atom_site_symmetry_multiplicity
 _atom_site_fract_x
 _atom_site_fract_y
 _atom_site_fract_z
 _atom_site_occupancy
  H  H0  6  0.05719496  0.46763971  0.39532730  1
  H  H1  6  0.12380133  0.29696193  0.33084937  1
  H  H2  6  0.14660121  0.71543597  0.57588876  1
  H  H3  6  0.16097118  0.50409861  0.43581109  1
  H  H4  6  0.17793008  0.70838955  0.83185800  1
  H  H5  6  0.19073506  0.79662987  1.06646535  1
  H  H6  6  0.21548850  0.60187729  -0.03052896  1
  H  H7  6  0.24783502  0.57764020  0.20370740  1
  C  C8  6  0.10940356  0.46579727  0.33712059  1
  C  C9  6  0.15088021  0.36096656  0.29932677  1
  C  C10  6  0.19383796  0.74573677  0.69162266  1
  C  C11  6  0.21181031  0.55293376  0.06251388  1
  N  N12  6  0.01616396  0.32537611  0.42203816  1
  N  N13  6  0.07036607  0.47309874  -0.01950190  1
  N  N14  6  0.09136502  0.38360076  0.34690714  1
  N  N15  6  0.12823776  0.33060941  -0.07027780  1
  N  N16  6  0.13040676  0.50031118  0.12985443  1
  N  N17  6  0.17973698  0.37868249  0.08684506  1
  N  N18  6  0.24495869  0.51311322  -0.06094666  1
  N  N19  6  0.26840407  0.72870443  0.40682456  1
  O  O20  6  -0.02908669  0.34978873  0.47672606  1
  O  O21  6  0.00219391  0.25639402  0.43039821  1
  O  O22  6  0.00257441  0.42380420  0.03799874  1
  O  O23  6  0.06500407  0.27276364  -0.01599821  1
  O  O24  6  0.09106638  0.50058697  -0.19540188  1
  O  O25  6  0.15128342  0.35241448  -0.24923358  1
  O  O26  6  0.20526717  0.69841558  0.30784237  1
  O  O27  6  0.26363925  0.59571142  -0.32670414  1
