###############################################################################################
#
# CIF file generated by modified CIFWriter class 
# in pymatgen (v2025.03.10) https://pymatgen.org/
#
###############################################################################################
data_PBE+MBD_tight_6a97fedcb583952
_symmetry_space_group_name_H-M   P6_3
_cell_length_a   14.06285214
_cell_length_b   14.06285214
_cell_length_c   10.58594396
_cell_angle_alpha   90.00000000
_cell_angle_beta   90.00000000
_cell_angle_gamma   120.00000000
_symmetry_Int_Tables_number   173
_chemical_formula_moiety   'C4 H8 N8 O8'
_chemical_formula_sum   'H48 C24 N48 O48'
_cell_volume   1813.03857020
_cell_formula_units_Z   6
loop_
 _symmetry_equiv_pos_site_id
 _symmetry_equiv_pos_as_xyz
  1  'x, y, z'
  2  'x-y, x, z+1/2'
  3  '-y, x-y, z'
  4  '-x, -y, z+1/2'
  5  '-x+y, -x, z'
  6  'y, -x+y, z+1/2'
loop_
 _atom_site_type_symbol
 _atom_site_label
 _atom_site_symmetry_multiplicity
 _atom_site_fract_x
 _atom_site_fract_y
 _atom_site_fract_z
 _atom_site_occupancy
  H  H0  6  -0.18821549  0.54712529  0.76889027  1
  H  H1  6  -0.09842826  0.56169251  0.64139437  1
  H  H2  6  0.01263654  0.84466933  0.63031032  1
  H  H3  6  0.01408606  0.72862497  0.56334205  1
  H  H4  6  0.06298676  0.54129608  0.69378459  1
  H  H5  6  0.07778598  0.51011081  0.85419310  1
  H  H6  6  0.16970328  0.70272940  0.61485917  1
  H  H7  6  0.19328823  0.47078170  0.70851779  1
  C  C8  6  -0.10243375  0.58495448  0.73942443  1
  C  C9  6  0.02701316  0.77658683  0.64996054  1
  C  C10  6  0.06130152  0.56279364  0.79311395  1
  C  C11  6  0.18886200  0.75315429  0.70057813  1
  N  N12  6  -0.10618827  0.47319928  0.92108645  1
  N  N13  6  -0.07167541  0.75103561  0.84653367  1
  N  N14  6  -0.05139982  0.70336575  0.74227009  1
  N  N15  6  -0.04821436  0.54297715  0.82183175  1
  N  N16  6  0.06367301  0.27409544  0.68345595  1
  N  N17  6  0.14032278  0.82280442  0.69235974  1
  N  N18  6  0.14780150  0.67674168  0.80635854  1
  N  N19  6  0.18570147  0.71722018  0.92697043  1
  O  O20  6  -0.20014333  0.45383025  0.94054971  1
  O  O21  6  -0.14211119  0.68664296  0.92109798  1
  O  O22  6  -0.05846653  0.43444173  0.98240002  1
  O  O23  6  -0.01811648  0.85097914  0.85532567  1
  O  O24  6  0.00774173  0.17630893  0.65840293  1
  O  O25  6  0.02845625  0.33754464  0.70207144  1
  O  O26  6  0.14677673  0.65243220  1.01537341  1
  O  O27  6  0.18447433  0.44046178  0.93440189  1
