###############################################################################################
#
# CIF file generated by modified CIFWriter class 
# in pymatgen (v2025.03.10) https://pymatgen.org/
#
###############################################################################################
data_PBE+MBD_tight_6febefd2ec32824
_symmetry_space_group_name_H-M   P6_1
_cell_length_a   17.16720987
_cell_length_b   17.16720987
_cell_length_c   7.33936054
_cell_angle_alpha   90.00000000
_cell_angle_beta   90.00000000
_cell_angle_gamma   120.00000000
_symmetry_Int_Tables_number   169
_chemical_formula_moiety   'C4 H8 N8 O8'
_chemical_formula_sum   'H48 C24 N48 O48'
_cell_volume   1873.21784810
_cell_formula_units_Z   6
loop_
 _symmetry_equiv_pos_site_id
 _symmetry_equiv_pos_as_xyz
  1  'x, y, z'
  2  'x-y, x, z+1/6'
  3  '-y, x-y, z+1/3'
  4  '-x, -y, z+1/2'
  5  '-x+y, -x, z+2/3'
  6  'y, -x+y, z+5/6'
loop_
 _atom_site_type_symbol
 _atom_site_label
 _atom_site_symmetry_multiplicity
 _atom_site_fract_x
 _atom_site_fract_y
 _atom_site_fract_z
 _atom_site_occupancy
  H  H0  6  -0.01065034  0.31560305  0.27221205  1
  H  H1  6  0.10886717  0.37903961  0.26428082  1
  H  H2  6  0.11277504  0.56790614  0.43728688  1
  H  H3  6  0.11646243  0.25175824  0.67324897  1
  H  H4  6  0.14302713  0.81025181  0.17597574  1
  H  H5  6  0.17366427  0.52004664  0.33365377  1
  H  H6  6  0.21230171  0.73773474  0.23017298  1
  H  H7  6  0.24633099  0.73680946  0.46047029  1
  C  C8  6  0.05022074  0.35105079  0.35486846  1
  C  C9  6  0.12996481  0.31131476  0.59471294  1
  C  C10  6  0.13257047  0.51686412  0.45140467  1
  C  C11  6  0.22124019  0.47892589  0.67376188  1
  N  N12  6  -0.01956379  0.41326265  0.55156431  1
  N  N13  6  -0.01844446  0.19813705  0.47717268  1
  N  N14  6  0.05223229  0.28732534  0.48017922  1
  N  N15  6  0.05324748  0.42786208  0.44739166  1
  N  N16  6  0.10204205  0.37173966  0.87233240  1
  N  N17  6  0.15243153  0.38676332  0.71525175  1
  N  N18  6  0.18532804  0.53570660  0.61748474  1
  N  N19  6  0.20135017  0.60944874  0.72572509  1
  O  O20  6  -0.08506052  0.33616626  0.55116773  1
  O  O21  6  -0.07889490  0.17935481  0.36519520  1
  O  O22  6  -0.01498184  0.14619207  0.58652966  1
  O  O23  6  -0.01298400  0.47768135  0.63845590  1
  O  O24  6  0.04018110  0.29462747  0.89923885  1
  O  O25  6  0.12335512  0.43785604  0.97024137  1
  O  O26  6  0.16521957  0.65261446  0.67809138  1
  O  O27  6  0.25194042  0.62697444  0.85668246  1
