###############################################################################################
#
# CIF file generated by modified CIFWriter class 
# in pymatgen (v2025.03.10) https://pymatgen.org/
#
###############################################################################################
data_PBE+MBD_tight_719ec9653032ca1
_symmetry_space_group_name_H-M   P6_3
_cell_length_a   13.68085828
_cell_length_b   13.68085828
_cell_length_c   12.39180542
_cell_angle_alpha   90.00000000
_cell_angle_beta   90.00000000
_cell_angle_gamma   120.00000000
_symmetry_Int_Tables_number   173
_chemical_formula_moiety   'C4 H8 N8 O8'
_chemical_formula_sum   'H48 C24 N48 O48'
_cell_volume   2008.59281739
_cell_formula_units_Z   6
loop_
 _symmetry_equiv_pos_site_id
 _symmetry_equiv_pos_as_xyz
  1  'x, y, z'
  2  'x-y, x, z+1/2'
  3  '-y, x-y, z'
  4  '-x, -y, z+1/2'
  5  '-x+y, -x, z'
  6  'y, -x+y, z+1/2'
loop_
 _atom_site_type_symbol
 _atom_site_label
 _atom_site_symmetry_multiplicity
 _atom_site_fract_x
 _atom_site_fract_y
 _atom_site_fract_z
 _atom_site_occupancy
  H  H0  6  0.07391922  0.52396648  0.76711984  1
  H  H1  6  0.07520296  0.54898761  1.10022786  1
  H  H2  6  0.12052736  0.83239197  0.74220341  1
  H  H3  6  0.12290233  0.85813802  1.07303325  1
  H  H4  6  0.17494258  0.39871912  1.01931433  1
  H  H5  6  0.19036970  0.41297285  0.80904617  1
  H  H6  6  0.19658907  0.64174835  0.82314668  1
  H  H7  6  0.19749786  0.65686355  1.03411502  1
  C  C8  6  0.10384433  0.59154886  0.82717437  1
  C  C9  6  0.10468797  0.60693348  1.03149911  1
  C  C10  6  0.13426587  0.79091749  0.81129307  1
  C  C11  6  0.13563298  0.80642725  1.01363682  1
  N  N12  6  -0.04479761  0.62569021  0.76216031  1
  N  N13  6  -0.04063482  0.65181903  1.08377988  1
  N  N14  6  -0.00068822  0.42114343  0.94044235  1
  N  N15  6  0.05698187  0.17609665  0.89861938  1
  N  N16  6  0.06464379  0.66934111  0.80133888  1
  N  N17  6  0.06617239  0.68764570  1.04036470  1
  N  N18  6  0.07106029  0.53963338  0.93321036  1
  N  N19  6  0.11060878  0.83428736  0.90831078  1
  O  O20  6  -0.10180894  0.52178080  0.75484361  1
  O  O21  6  -0.09581098  0.55161459  1.11113617  1
  O  O22  6  -0.07477659  0.69375485  0.73950339  1
  O  O23  6  -0.06998625  0.72254440  1.08978851  1
  O  O24  6  -0.03075331  0.38148484  1.03103043  1
  O  O25  6  -0.02222157  0.36787801  0.85574055  1
  O  O26  6  0.00854005  0.13311693  0.98296612  1
  O  O27  6  0.02441295  0.14333811  0.80704743  1
