###############################################################################################
#
# CIF file generated by modified CIFWriter class 
# in pymatgen (v2025.03.10) https://pymatgen.org/
#
###############################################################################################
data_PBE+MBD_tight_721dea3f63f23d0
_symmetry_space_group_name_H-M   P-3
_cell_length_a   18.71685400
_cell_length_b   18.71685400
_cell_length_c   7.31395100
_cell_angle_alpha   90.00000000
_cell_angle_beta   90.00000000
_cell_angle_gamma   120.00000000
_symmetry_Int_Tables_number   147
_chemical_formula_moiety   'C4 H8 N8 O8'
_chemical_formula_sum   'H48 C24 N48 O48'
_cell_volume   2218.95442951
_cell_formula_units_Z   6
loop_
 _symmetry_equiv_pos_site_id
 _symmetry_equiv_pos_as_xyz
  1  'x, y, z'
  2  '-x, -y, -z'
  3  '-y, x-y, z'
  4  'y, -x+y, -z'
  5  '-x+y, -x, z'
  6  'x-y, x, -z'
loop_
 _atom_site_type_symbol
 _atom_site_label
 _atom_site_symmetry_multiplicity
 _atom_site_fract_x
 _atom_site_fract_y
 _atom_site_fract_z
 _atom_site_occupancy
  H  H0  6  -0.06663518  0.22890482  0.76257532  1
  H  H1  6  -0.06499579  0.34651490  0.73923540  1
  H  H2  6  -0.01249539  0.42468801  0.90997558  1
  H  H3  6  -0.01066356  0.21176406  0.93998940  1
  H  H4  6  -0.00754165  0.25491961  0.45296599  1
  H  H5  6  -0.00539431  0.37119716  0.43578645  1
  H  H6  6  0.08441655  0.25042844  0.42050777  1
  H  H7  6  0.09024935  0.46490210  0.39604378  1
  C  C8  6  -0.00550764  0.25082314  0.82364888  1
  C  C9  6  -0.00510838  0.38781109  0.80388426  1
  C  C10  6  0.05461769  0.27574891  0.50582558  1
  C  C11  6  0.05711095  0.41252516  0.48833190  1
  N  N12  6  0.02263279  0.33488785  0.88437885  1
  N  N13  6  0.04858620  0.24459032  0.69025783  1
  N  N14  6  0.05143978  0.44439418  0.66646170  1
  N  N15  6  0.07292379  0.52748035  0.67662683  1
  N  N16  6  0.07855124  0.19031225  0.72627529  1
  N  N17  6  0.08514421  0.36924160  1.01415545  1
  N  N18  6  0.09866459  0.36510133  0.49650075  1
  N  N19  6  0.18434193  0.40769890  0.49138568  1
  O  O20  6  0.05954318  0.55182786  0.82171254  1
  O  O21  6  0.06387049  0.88816218  0.59821705  1
  O  O22  6  0.06942740  0.16265802  0.88134959  1
  O  O23  6  0.10341001  0.56997496  0.53920920  1
  O  O24  6  0.10993128  0.44130517  1.05778122  1
  O  O25  6  0.11008437  0.32405369  1.07493790  1
  O  O26  6  0.14697223  0.78212590  0.49239447  1
  O  O27  6  0.21913822  0.48294906  0.48692703  1
