###############################################################################################
#
# CIF file generated by modified CIFWriter class 
# in pymatgen (v2025.03.10) https://pymatgen.org/
#
###############################################################################################
data_PBE+MBD_tight_7778d4931594fdf
_symmetry_space_group_name_H-M   P3_121
_cell_length_a   10.36529480
_cell_length_b   10.36529480
_cell_length_c   19.63754176
_cell_angle_alpha   90.00000000
_cell_angle_beta   90.00000000
_cell_angle_gamma   120.00000000
_symmetry_Int_Tables_number   152
_chemical_formula_moiety   'C4 H8 N8 O8'
_chemical_formula_sum   'H48 C24 N48 O48'
_cell_volume   1827.17889567
_cell_formula_units_Z   6
loop_
 _symmetry_equiv_pos_site_id
 _symmetry_equiv_pos_as_xyz
  1  'x, y, z'
  2  '-y, x-y, z+1/3'
  3  '-x+y, -x, z+2/3'
  4  'y, x, -z'
  5  'x-y, -y, -z+2/3'
  6  '-x, -x+y, -z+1/3'
loop_
 _atom_site_type_symbol
 _atom_site_label
 _atom_site_symmetry_multiplicity
 _atom_site_fract_x
 _atom_site_fract_y
 _atom_site_fract_z
 _atom_site_occupancy
  H  H0  6  0.05332111  0.83226859  0.99719408  1
  H  H1  6  0.06070173  0.43856578  0.98192974  1
  H  H2  6  0.10003756  0.25697217  0.13433664  1
  H  H3  6  0.10430544  0.48142420  0.78290591  1
  H  H4  6  0.13496009  0.40822993  0.19076189  1
  H  H5  6  0.15381912  0.37638172  0.29948856  1
  H  H6  6  0.21882345  0.59939247  0.94841714  1
  H  H7  6  0.25128583  0.60453140  0.83931205  1
  C  C8  6  0.09647011  0.53895039  0.95153948  1
  C  C9  6  0.10040791  0.78330455  0.96299320  1
  C  C10  6  0.13590565  0.56529531  0.82296832  1
  C  C11  6  0.16068799  0.82026298  0.83612562  1
  N  N12  6  -0.10651392  0.39727297  0.87173652  1
  N  N13  6  -0.08148254  0.76736574  0.87919801  1
  N  N14  6  -0.02273962  0.58755425  1.04887508  1
  N  N15  6  0.04262756  0.50036503  0.88203393  1
  N  N16  6  0.04521537  0.63017602  0.98494608  1
  N  N17  6  0.06218304  0.79377618  0.89306167  1
  N  N18  6  0.12161626  0.68845828  0.79496750  1
  N  N19  6  0.14340204  0.71263266  0.72488849  1
  O  O20  6  -0.18191835  0.33761033  0.92304654  1
  O  O21  6  -0.15163875  0.37678171  0.81261534  1
  O  O22  6  -0.10931466  0.77831715  0.81923519  1
  O  O23  6  -0.04984473  0.46375072  1.07007657  1
  O  O24  6  -0.04965375  0.67437955  1.07884920  1
  O  O25  6  0.09962914  0.26594314  0.73866993  1
  O  O26  6  0.15122236  0.82739268  0.70205443  1
  O  O27  6  0.15258738  0.61783931  0.69113557  1
