###############################################################################################
#
# CIF file generated by modified CIFWriter class 
# in pymatgen (v2025.03.10) https://pymatgen.org/
#
###############################################################################################
data_PBE+MBD_tight_77dc9363d79f7a1
_symmetry_space_group_name_H-M   P6_4
_cell_length_a   15.87562360
_cell_length_b   15.87562360
_cell_length_c   8.32961009
_cell_angle_alpha   90.00000000
_cell_angle_beta   90.00000000
_cell_angle_gamma   120.00000000
_symmetry_Int_Tables_number   172
_chemical_formula_moiety   'C4 H8 N8 O8'
_chemical_formula_sum   'H48 C24 N48 O48'
_cell_volume   1818.09633602
_cell_formula_units_Z   6
loop_
 _symmetry_equiv_pos_site_id
 _symmetry_equiv_pos_as_xyz
  1  'x, y, z'
  2  'x-y, x, z+2/3'
  3  '-y, x-y, z+1/3'
  4  '-x, -y, z'
  5  '-x+y, -x, z+2/3'
  6  'y, -x+y, z+1/3'
loop_
 _atom_site_type_symbol
 _atom_site_label
 _atom_site_symmetry_multiplicity
 _atom_site_fract_x
 _atom_site_fract_y
 _atom_site_fract_z
 _atom_site_occupancy
  H  H0  6  -0.02111911  0.68926104  0.79627154  1
  H  H1  6  -0.01649886  0.67887461  1.01056209  1
  H  H2  6  0.05184707  0.59832049  1.12050643  1
  H  H3  6  0.07587242  0.24831982  0.39141517  1
  H  H4  6  0.08958821  0.53299209  0.99009297  1
  H  H5  6  0.10086322  0.81040599  1.15772000  1
  H  H6  6  0.17570497  0.73329132  1.25984379  1
  H  H7  6  0.22583356  0.52667789  0.54753862  1
  C  C8  6  0.02617780  0.70105338  0.89911655  1
  C  C9  6  0.09880925  0.60411095  1.01936440  1
  C  C10  6  0.14962273  0.84683204  1.05603044  1
  C  C11  6  0.22930534  0.75211568  1.16292444  1
  N  N12  6  0.06976977  0.64055655  0.88315686  1
  N  N13  6  0.08367490  0.86615983  0.79913310  1
  N  N14  6  0.08818845  0.61899312  0.72786888  1
  N  N15  6  0.09614515  0.80510709  0.90722944  1
  N  N16  6  0.09989103  0.42027978  0.33838192  1
  N  N17  6  0.16601849  0.39947210  0.41097025  1
  N  N18  6  0.19991033  0.66585878  1.06436517  1
  N  N19  6  0.26009116  0.62440037  1.06515828  1
  O  O20  6  0.02410319  0.82696983  0.69083727  1
  O  O21  6  0.03047550  0.35156674  0.26894485  1
  O  O22  6  0.04571214  0.18047795  0.15328663  1
  O  O23  6  0.07287778  0.65994692  0.61623962  1
  O  O24  6  0.11436901  0.50329188  0.34842291  1
  O  O25  6  0.11645814  0.55998132  0.71882576  1
  O  O26  6  0.22235461  0.53713393  1.03465706  1
  O  O27  6  0.32046187  0.66658400  0.42835360  1
