###############################################################################################
#
# CIF file generated by modified CIFWriter class 
# in pymatgen (v2025.03.10) https://pymatgen.org/
#
###############################################################################################
data_PBE+MBD_tight_7cd07f1e3f55f65
_symmetry_space_group_name_H-M   P3_121
_cell_length_a   15.29906629
_cell_length_b   15.29906629
_cell_length_c   9.34564048
_cell_angle_alpha   90.00000000
_cell_angle_beta   90.00000000
_cell_angle_gamma   120.00000000
_symmetry_Int_Tables_number   152
_chemical_formula_moiety   'C4 H8 N8 O8'
_chemical_formula_sum   'H48 C24 N48 O48'
_cell_volume   1894.39070618
_cell_formula_units_Z   6
loop_
 _symmetry_equiv_pos_site_id
 _symmetry_equiv_pos_as_xyz
  1  'x, y, z'
  2  '-y, x-y, z+1/3'
  3  '-x+y, -x, z+2/3'
  4  'y, x, -z'
  5  'x-y, -y, -z+2/3'
  6  '-x, -x+y, -z+1/3'
loop_
 _atom_site_type_symbol
 _atom_site_label
 _atom_site_symmetry_multiplicity
 _atom_site_fract_x
 _atom_site_fract_y
 _atom_site_fract_z
 _atom_site_occupancy
  H  H0  6  -0.02968277  0.58685116  0.35489535  1
  H  H1  6  0.03114493  0.87484673  0.38414129  1
  H  H2  6  0.04012986  0.36169893  0.83135385  1
  H  H3  6  0.07160748  0.68454724  0.25095421  1
  H  H4  6  0.10504672  0.84380205  0.26752684  1
  H  H5  6  0.10688747  0.38078791  0.66663969  1
  H  H6  6  0.23932576  0.73536966  0.31300043  1
  H  H7  6  0.26200449  0.67515300  0.46013442  1
  C  C8  6  0.04094998  0.65917417  0.35921455  1
  C  C9  6  0.07945259  0.84104451  0.37837905  1
  C  C10  6  0.10650794  0.36552010  0.78169623  1
  C  C11  6  0.22147829  0.71334235  0.42561371  1
  N  N12  6  -0.05996015  0.70497055  0.51245099  1
  N  N13  6  0.01407490  0.19099789  0.87039320  1
  N  N14  6  0.02087899  0.73534093  0.41605874  1
  N  N15  6  0.08064005  0.54716950  0.49598785  1
  N  N16  6  0.09983450  0.26783361  0.80098681  1
  N  N17  6  0.11341092  0.64252681  0.43768641  1
  N  N18  6  0.18893651  0.48699716  0.97702178  1
  N  N19  6  0.19574322  0.45038604  0.84143429  1
  O  O20  6  -0.10344793  0.61566199  0.54825180  1
  O  O21  6  -0.07916544  0.76977829  0.55094344  1
  O  O22  6  -0.04786645  0.21333247  0.91652812  1
  O  O23  6  -0.01065477  0.48873074  0.50045356  1
  O  O24  6  0.00611939  0.10742281  0.87672659  1
  O  O25  6  0.11067622  0.43620926  1.04365157  1
  O  O26  6  0.14615202  0.52899242  0.53808010  1
  O  O27  6  0.26233756  0.56684167  1.01561008  1
