###############################################################################################
#
# CIF file generated by modified CIFWriter class 
# in pymatgen (v2025.03.10) https://pymatgen.org/
#
###############################################################################################
data_PBE+MBD_tight_7ff217c351720fa
_symmetry_space_group_name_H-M   P6_2
_cell_length_a   16.99851393
_cell_length_b   16.99851393
_cell_length_c   7.09196982
_cell_angle_alpha   90.00000000
_cell_angle_beta   90.00000000
_cell_angle_gamma   120.00000000
_symmetry_Int_Tables_number   171
_chemical_formula_moiety   'C4 H8 N8 O8'
_chemical_formula_sum   'H48 C24 N48 O48'
_cell_volume   1774.67741266
_cell_formula_units_Z   6
loop_
 _symmetry_equiv_pos_site_id
 _symmetry_equiv_pos_as_xyz
  1  'x, y, z'
  2  'x-y, x, z+1/3'
  3  '-y, x-y, z+2/3'
  4  '-x, -y, z'
  5  '-x+y, -x, z+1/3'
  6  'y, -x+y, z+2/3'
loop_
 _atom_site_type_symbol
 _atom_site_label
 _atom_site_symmetry_multiplicity
 _atom_site_fract_x
 _atom_site_fract_y
 _atom_site_fract_z
 _atom_site_occupancy
  H  H0  6  0.00359643  0.26903323  0.37290492  1
  H  H1  6  0.02672284  0.21495716  0.18227862  1
  H  H2  6  0.03133188  0.40868083  0.36262144  1
  H  H3  6  0.04109247  0.45484456  0.13101535  1
  H  H4  6  0.09993771  0.77243680  0.91930814  1
  H  H5  6  0.13944715  0.35439039  0.61173203  1
  H  H6  6  0.17730144  0.49506445  0.56802334  1
  H  H7  6  0.27783569  0.57388811  0.44508876  1
  C  C8  6  0.05588272  0.27465661  0.27412479  1
  C  C9  6  0.07370689  0.43302481  0.23497561  1
  C  C10  6  0.16297585  0.81606617  0.84350197  1
  C  C11  6  0.21588400  0.50765718  0.43650730  1
  N  N12  6  0.05685049  0.85235124  0.68229117  1
  N  N13  6  0.08044390  0.35582522  0.16365029  1
  N  N14  6  0.12996782  0.27562772  0.37721337  1
  N  N15  6  0.13203660  0.37085315  0.00214506  1
  N  N16  6  0.13713928  0.68508766  0.65609339  1
  N  N17  6  0.16196053  0.51009144  0.27863514  1
  N  N18  6  0.19021916  0.59229075  0.18329618  1
  N  N19  6  0.19756257  0.76177774  0.75498168  1
  O  O20  6  -0.00249123  0.79429615  0.78397947  1
  O  O21  6  0.04496854  0.89630563  0.56000631  1
  O  O22  6  0.05752307  0.66832689  0.64882913  1
  O  O23  6  0.13499909  0.59542914  0.07525149  1
  O  O24  6  0.14319946  0.43450318  -0.09915671  1
  O  O25  6  0.15699701  0.83684091  0.30835617  1
  O  O26  6  0.16736257  0.64040012  0.58158291  1
  O  O27  6  0.26680588  0.65476447  0.21657961  1
