###############################################################################################
#
# CIF file generated by modified CIFWriter class 
# in pymatgen (v2025.03.10) https://pymatgen.org/
#
###############################################################################################
data_PBE+MBD_tight_811faf0dbffdd18
_symmetry_space_group_name_H-M   P6_2
_cell_length_a   15.28007681
_cell_length_b   15.28007681
_cell_length_c   9.06183753
_cell_angle_alpha   90.00000000
_cell_angle_beta   90.00000000
_cell_angle_gamma   120.00000000
_symmetry_Int_Tables_number   171
_chemical_formula_moiety   'C4 H8 N8 O8'
_chemical_formula_sum   'H48 C24 N48 O48'
_cell_volume   1832.30589122
_cell_formula_units_Z   6
loop_
 _symmetry_equiv_pos_site_id
 _symmetry_equiv_pos_as_xyz
  1  'x, y, z'
  2  'x-y, x, z+1/3'
  3  '-y, x-y, z+2/3'
  4  '-x, -y, z'
  5  '-x+y, -x, z+1/3'
  6  'y, -x+y, z+2/3'
loop_
 _atom_site_type_symbol
 _atom_site_label
 _atom_site_symmetry_multiplicity
 _atom_site_fract_x
 _atom_site_fract_y
 _atom_site_fract_z
 _atom_site_occupancy
  H  H0  6  0.00925665  0.28876142  0.31498500  1
  H  H1  6  0.05114434  0.23083466  0.50220988  1
  H  H2  6  0.05695635  0.84090219  0.82345298  1
  H  H3  6  0.05905705  0.44750178  0.51065713  1
  H  H4  6  0.08824035  0.33183391  0.15477649  1
  H  H5  6  0.13250975  0.56851608  0.42164017  1
  H  H6  6  0.15079702  0.44741443  0.71282525  1
  H  H7  6  0.20502623  0.71854205  1.02583936  1
  C  C8  6  0.08464820  0.34367138  0.27323894  1
  C  C9  6  0.12264418  0.49290354  0.43600108  1
  C  C10  6  0.13373262  0.27158256  0.49025374  1
  C  C11  6  0.20731218  0.44645627  0.63903602  1
  N  N12  6  0.10310614  0.44548326  0.29224671  1
  N  N13  6  0.10402040  0.75092887  0.62108812  1
  N  N14  6  0.10833397  0.50077028  0.16504380  1
  N  N15  6  0.12077748  0.83308413  1.08097805  1
  N  N16  6  0.15604688  0.32339669  0.35121540  1
  N  N17  6  0.15685709  0.81786826  0.95120728  1
  N  N18  6  0.21086997  0.49745413  0.50524246  1
  N  N19  6  0.25819988  0.69528479  0.77535684  1
  O  O20  6  0.02389176  0.69542205  0.68618859  1
  O  O21  6  0.06592183  0.87165273  1.07395488  1
  O  O22  6  0.09898494  0.45917716  0.04615310  1
  O  O23  6  0.11809956  0.58475707  0.18571006  1
  O  O24  6  0.13253796  0.73124243  0.50515404  1
  O  O25  6  0.14525593  0.80703079  1.19560413  1
  O  O26  6  0.17941521  0.62232199  0.81878840  1
  O  O27  6  0.30450202  0.61942638  0.34551585  1
