###############################################################################################
#
# CIF file generated by modified CIFWriter class 
# in pymatgen (v2025.03.10) https://pymatgen.org/
#
###############################################################################################
data_PBE+MBD_tight_8215070dce48c19
_symmetry_space_group_name_H-M   P3_121
_cell_length_a   10.91423598
_cell_length_b   10.91423598
_cell_length_c   18.58104828
_cell_angle_alpha   90.00000000
_cell_angle_beta   90.00000000
_cell_angle_gamma   120.00000000
_symmetry_Int_Tables_number   152
_chemical_formula_moiety   'C4 H8 N8 O8'
_chemical_formula_sum   'H48 C24 N48 O48'
_cell_volume   1916.84732150
_cell_formula_units_Z   6
loop_
 _symmetry_equiv_pos_site_id
 _symmetry_equiv_pos_as_xyz
  1  'x, y, z'
  2  '-y, x-y, z+1/3'
  3  '-x+y, -x, z+2/3'
  4  'y, x, -z'
  5  'x-y, -y, -z+2/3'
  6  '-x, -x+y, -z+1/3'
loop_
 _atom_site_type_symbol
 _atom_site_label
 _atom_site_symmetry_multiplicity
 _atom_site_fract_x
 _atom_site_fract_y
 _atom_site_fract_z
 _atom_site_occupancy
  H  H0  6  -0.11860348  0.30811009  0.33496488  1
  H  H1  6  -0.08373913  0.16474564  0.32909700  1
  H  H2  6  -0.07092168  0.42976374  0.46270130  1
  H  H3  6  -0.02042712  0.34629627  0.53069375  1
  H  H4  6  0.03137180  0.51664647  0.29433423  1
  H  H5  6  0.08788960  0.63750290  0.42468665  1
  H  H6  6  0.18331561  0.53893954  0.24705406  1
  H  H7  6  0.26894650  0.71121123  0.45141368  1
  C  C8  6  -0.04646445  0.27046868  0.35117457  1
  C  C9  6  -0.00488550  0.38243248  0.47477616  1
  C  C10  6  0.13020544  0.51393858  0.29922416  1
  C  C11  6  0.18005870  0.62260214  0.42441313  1
  N  N12  6  -0.10840558  0.12534493  0.46096661  1
  N  N13  6  -0.04467510  0.26011539  0.42917036  1
  N  N14  6  0.09034953  0.37051892  0.32073907  1
  N  N15  6  0.13816616  0.80755445  -0.01543176  1
  N  N16  6  0.14054923  0.49284131  0.46273526  1
  N  N17  6  0.22305252  0.62219125  0.35018239  1
  N  N18  6  0.22379273  0.75194386  0.15521363  1
  N  N19  6  0.27190983  0.62759892  0.66188274  1
  O  O20  6  0.02396351  -0.14633994  0.57947879  1
  O  O21  6  0.05250593  0.83958993  0.00643421  1
  O  O22  6  0.11186368  0.69047758  -0.03936256  1
  O  O23  6  0.12010658  -0.12238168  0.47325593  1
  O  O24  6  0.15742385  0.78585647  0.19593559  1
  O  O25  6  0.17997394  0.60834273  0.70607624  1
  O  O26  6  0.18839458  0.63090177  0.13452241  1
  O  O27  6  0.27598501  0.66770255  0.59919788  1
