###############################################################################################
#
# CIF file generated by modified CIFWriter class 
# in pymatgen (v2025.03.10) https://pymatgen.org/
#
###############################################################################################
data_PBE+MBD_tight_878d1a7ab1a23ea
_symmetry_space_group_name_H-M   P3_221
_cell_length_a   7.71047854
_cell_length_b   7.71047854
_cell_length_c   34.63831101
_cell_angle_alpha   90.00000000
_cell_angle_beta   90.00000000
_cell_angle_gamma   120.00000000
_symmetry_Int_Tables_number   154
_chemical_formula_moiety   'C4 H8 N8 O8'
_chemical_formula_sum   'H48 C24 N48 O48'
_cell_volume   1783.40509871
_cell_formula_units_Z   6
loop_
 _symmetry_equiv_pos_site_id
 _symmetry_equiv_pos_as_xyz
  1  'x, y, z'
  2  '-y, x-y, z+2/3'
  3  '-x+y, -x, z+1/3'
  4  'y, x, -z'
  5  'x-y, -y, -z+1/3'
  6  '-x, -x+y, -z+2/3'
loop_
 _atom_site_type_symbol
 _atom_site_label
 _atom_site_symmetry_multiplicity
 _atom_site_fract_x
 _atom_site_fract_y
 _atom_site_fract_z
 _atom_site_occupancy
  H  H0  6  -0.30297616  0.30311485  0.70009606  1
  H  H1  6  0.05365426  0.53624461  0.67419831  1
  H  H2  6  0.12588484  -0.21704842  0.21655078  1
  H  H3  6  0.13345555  -0.19749516  0.26779083  1
  H  H4  6  0.14566260  0.64724613  0.07496769  1
  H  H5  6  0.16034710  0.80086318  0.68254262  1
  H  H6  6  0.16151008  0.57221003  0.60761536  1
  H  H7  6  0.16274488  0.37611448  0.70522123  1
  C  C8  6  -0.27376470  0.42165775  0.72102121  1
  C  C9  6  -0.14807921  0.22462919  0.75869275  1
  C  C10  6  0.07607532  0.65172045  0.69545594  1
  C  C11  6  0.20008813  0.45596491  0.73316752  1
  N  N12  6  -0.23356083  0.45560886  0.79085365  1
  N  N13  6  -0.21296079  0.36954014  0.75622712  1
  N  N14  6  -0.12355151  0.61491377  0.70460590  1
  N  N15  6  0.05989261  0.86105533  0.11282652  1
  N  N16  6  0.06650934  0.22407901  0.62716043  1
  N  N17  6  0.06998127  0.32314288  0.76335344  1
  N  N18  6  0.18312369  0.53543971  0.40864505  1
  N  N19  6  0.18936238  0.63656505  0.72730029  1
  O  O20  6  -0.21035309  0.38748589  0.82092213  1
  O  O21  6  -0.06902353  0.26556085  0.62828430  1
  O  O22  6  -0.05879495  0.68021150  0.11092935  1
  O  O23  6  -0.01171547  0.94562263  0.70624348  1
  O  O24  6  0.01303237  0.04221095  0.79424545  1
  O  O25  6  0.02650656  0.41117390  0.39288343  1
  O  O26  6  0.13785903  0.40841365  0.54677740  1
  O  O27  6  0.20123161  0.64554721  0.43538580  1
