###############################################################################################
#
# CIF file generated by modified CIFWriter class 
# in pymatgen (v2025.03.10) https://pymatgen.org/
#
###############################################################################################
data_PBE+MBD_tight_885f6e6c2b6d2c5
_symmetry_space_group_name_H-M   P3_121
_cell_length_a   14.07293665
_cell_length_b   14.07293665
_cell_length_c   11.16860836
_cell_angle_alpha   90.00000000
_cell_angle_beta   90.00000000
_cell_angle_gamma   120.00000000
_symmetry_Int_Tables_number   152
_chemical_formula_moiety   'C4 H8 N8 O8'
_chemical_formula_sum   'H48 C24 N48 O48'
_cell_volume   1915.57499258
_cell_formula_units_Z   6
loop_
 _symmetry_equiv_pos_site_id
 _symmetry_equiv_pos_as_xyz
  1  'x, y, z'
  2  '-y, x-y, z+1/3'
  3  '-x+y, -x, z+2/3'
  4  'y, x, -z'
  5  'x-y, -y, -z+2/3'
  6  '-x, -x+y, -z+1/3'
loop_
 _atom_site_type_symbol
 _atom_site_label
 _atom_site_symmetry_multiplicity
 _atom_site_fract_x
 _atom_site_fract_y
 _atom_site_fract_z
 _atom_site_occupancy
  H  H0  6  -0.17138978  0.43364248  0.46980497  1
  H  H1  6  -0.11252769  0.44035931  0.32628268  1
  H  H2  6  -0.05786987  0.31937630  0.28713303  1
  H  H3  6  -0.05474538  0.23400426  0.40362439  1
  H  H4  6  0.06176856  0.60115621  0.28110440  1
  H  H5  6  0.12251621  0.48870603  0.23608937  1
  H  H6  6  0.12702743  0.70228217  0.39495670  1
  H  H7  6  0.24083958  0.50241474  0.30910360  1
  C  C8  6  -0.09652640  0.44984718  0.42335781  1
  C  C9  6  -0.02521696  0.31901859  0.37655128  1
  C  C10  6  0.08498563  0.61424832  0.37644037  1
  C  C11  6  0.15710404  0.48517749  0.32306211  1
  N  N12  6  -0.10096336  0.32231799  0.57246516  1
  N  N13  6  -0.06754719  0.36858879  0.45879252  1
  N  N14  6  -0.04549447  0.62988870  0.50880133  1
  N  N15  6  -0.01281903  0.56162471  0.45048024  1
  N  N16  6  0.09364216  0.37524294  0.37054774  1
  N  N17  6  0.14891995  0.32202249  0.41760295  1
  N  N18  6  0.15858091  0.57155601  0.39589265  1
  N  N19  6  0.24095308  0.62359009  0.48039279  1
  O  O20  6  -0.14090633  0.58563120  0.54499127  1
  O  O21  6  -0.13219673  0.37012190  0.64066842  1
  O  O22  6  -0.09695803  0.23929510  0.59491348  1
  O  O23  6  0.02375449  0.72660736  0.51954023  1
  O  O24  6  0.09203902  0.23034953  0.45808191  1
  O  O25  6  0.12339694  0.75021014  0.07696329  1
  O  O26  6  0.23617712  0.69245257  0.54357050  1
  O  O27  6  0.28487862  0.68804778  0.15203435  1
