###############################################################################################
#
# CIF file generated by modified CIFWriter class 
# in pymatgen (v2025.03.10) https://pymatgen.org/
#
###############################################################################################
data_PBE+MBD_tight_8e1dfcfb2c94580
_symmetry_space_group_name_H-M   P6_3
_cell_length_a   15.22783888
_cell_length_b   15.22783888
_cell_length_c   10.56995025
_cell_angle_alpha   90.00000000
_cell_angle_beta   90.00000000
_cell_angle_gamma   120.00000000
_symmetry_Int_Tables_number   173
_chemical_formula_moiety   'C4 H8 N8 O8'
_chemical_formula_sum   'H48 C24 N48 O48'
_cell_volume   2122.65846105
_cell_formula_units_Z   6
loop_
 _symmetry_equiv_pos_site_id
 _symmetry_equiv_pos_as_xyz
  1  'x, y, z'
  2  'x-y, x, z+1/2'
  3  '-y, x-y, z'
  4  '-x, -y, z+1/2'
  5  '-x+y, -x, z'
  6  'y, -x+y, z+1/2'
loop_
 _atom_site_type_symbol
 _atom_site_label
 _atom_site_symmetry_multiplicity
 _atom_site_fract_x
 _atom_site_fract_y
 _atom_site_fract_z
 _atom_site_occupancy
  H  H0  6  -0.03163121  0.74304640  0.84720587  1
  H  H1  6  -0.00615418  0.50910308  0.69026775  1
  H  H2  6  0.02037380  0.87604687  0.51054039  1
  H  H3  6  0.02536685  0.63152085  0.35106822  1
  H  H4  6  0.08236190  0.77731488  0.76246814  1
  H  H5  6  0.09558256  0.63518928  0.66157480  1
  H  H6  6  0.11046056  0.84655478  0.57676593  1
  H  H7  6  0.11566716  0.69892757  0.47267167  1
  C  C8  6  -0.00054115  0.72954351  0.76113365  1
  C  C9  6  0.01269185  0.58580037  0.66326215  1
  C  C10  6  0.03207152  0.81452751  0.54311445  1
  C  C11  6  0.03549276  0.66452731  0.44525789  1
  N  N12  6  -0.13703994  0.72059413  0.63205328  1
  N  N13  6  -0.09840733  0.48820332  0.48752307  1
  N  N14  6  -0.09214521  0.55924268  0.85411136  1
  N  N15  6  -0.03621908  0.75516111  0.33153068  1
  N  N16  6  -0.03378886  0.76189261  0.65030560  1
  N  N17  6  -0.02764125  0.62391281  0.75966889  1
  N  N18  6  -0.02476230  0.58458927  0.53591106  1
  N  N19  6  0.01302479  0.74656923  0.43764337  1
  O  O20  6  -0.13704941  0.41872018  0.56400545  1
  O  O21  6  -0.12171139  0.59669668  0.93472777  1
  O  O22  6  -0.11702408  0.48384725  0.37405477  1
  O  O23  6  -0.11190985  0.47054778  0.85082119  1
  O  O24  6  -0.07802209  0.68137093  0.26055256  1
  O  O25  6  -0.03233797  0.83721771  0.31479516  1
  O  O26  6  0.08844133  -0.16376493  0.03675391  1
  O  O27  6  0.14737430  -0.19305183  0.21194964  1
