###############################################################################################
#
# CIF file generated by modified CIFWriter class 
# in pymatgen (v2025.03.10) https://pymatgen.org/
#
###############################################################################################
data_PBE+MBD_tight_92e97fca48f39f5
_symmetry_space_group_name_H-M   P-3
_cell_length_a   21.18381606
_cell_length_b   21.18381606
_cell_length_c   5.84137733
_cell_angle_alpha   90.00000000
_cell_angle_beta   90.00000000
_cell_angle_gamma   120.00000000
_symmetry_Int_Tables_number   147
_chemical_formula_moiety   'C4 H8 N8 O8'
_chemical_formula_sum   'H48 C24 N48 O48'
_cell_volume   2270.14859965
_cell_formula_units_Z   6
loop_
 _symmetry_equiv_pos_site_id
 _symmetry_equiv_pos_as_xyz
  1  'x, y, z'
  2  '-x, -y, -z'
  3  '-y, x-y, z'
  4  'y, -x+y, -z'
  5  '-x+y, -x, z'
  6  'x-y, x, -z'
loop_
 _atom_site_type_symbol
 _atom_site_label
 _atom_site_symmetry_multiplicity
 _atom_site_fract_x
 _atom_site_fract_y
 _atom_site_fract_z
 _atom_site_occupancy
  H  H0  6  0.04504224  0.62334004  -0.30865542  1
  H  H1  6  0.07988184  0.81910028  -0.15330057  1
  H  H2  6  0.11095074  0.70072247  -0.46624792  1
  H  H3  6  0.11547138  0.41025222  -0.00141515  1
  H  H4  6  0.12844586  0.80751980  -0.38475006  1
  H  H5  6  0.15225882  0.41926490  -0.28292600  1
  H  H6  6  0.24895870  0.74130046  -0.35861153  1
  H  H7  6  0.25793418  0.68737705  -0.13860376  1
  C  C8  6  0.09676847  0.67465737  -0.29713130  1
  C  C9  6  0.11951049  0.80242088  -0.19878662  1
  C  C10  6  0.15802203  0.40860829  -0.10256532  1
  C  C11  6  0.22765493  0.71383864  -0.19445020  1
  N  N12  6  0.05863577  0.70034670  0.06610582  1
  N  N13  6  0.09035322  0.72557785  -0.14589233  1
  N  N14  6  0.09837800  0.28653593  0.07648266  1
  N  N15  6  0.13266868  0.58443906  -0.19626677  1
  N  N16  6  0.14946745  0.33658661  -0.08042233  1
  N  N17  6  0.15177448  0.65748736  -0.22028698  1
  N  N18  6  0.22982879  0.46741348  -0.03277932  1
  N  N19  6  0.23647642  0.75560366  0.19577029  1
  O  O20  6  0.03340427  0.63499596  0.10531089  1
  O  O21  6  0.05952518  0.74605033  0.19973678  1
  O  O22  6  0.06189414  0.30692070  0.18449284  1
  O  O23  6  0.06933491  0.53816595  -0.23492658  1
  O  O24  6  0.09279321  0.22632052  0.08729527  1
  O  O25  6  0.18201862  0.57242323  -0.14111356  1
  O  O26  6  0.19551503  0.44012407  0.33017960  1
  O  O27  6  0.22622766  0.69491917  0.25069558  1
