###############################################################################################
#
# CIF file generated by modified CIFWriter class 
# in pymatgen (v2025.03.10) https://pymatgen.org/
#
###############################################################################################
data_PBE+MBD_tight_9409f4486a6ef82
_symmetry_space_group_name_H-M   P3_221
_cell_length_a   11.75291492
_cell_length_b   11.75291492
_cell_length_c   15.69288895
_cell_angle_alpha   90.00000000
_cell_angle_beta   90.00000000
_cell_angle_gamma   120.00000000
_symmetry_Int_Tables_number   154
_chemical_formula_moiety   'C4 H8 N8 O8'
_chemical_formula_sum   'H48 C24 N48 O48'
_cell_volume   1877.26125950
_cell_formula_units_Z   6
loop_
 _symmetry_equiv_pos_site_id
 _symmetry_equiv_pos_as_xyz
  1  'x, y, z'
  2  '-y, x-y, z+2/3'
  3  '-x+y, -x, z+1/3'
  4  'y, x, -z'
  5  'x-y, -y, -z+1/3'
  6  '-x, -x+y, -z+2/3'
loop_
 _atom_site_type_symbol
 _atom_site_label
 _atom_site_symmetry_multiplicity
 _atom_site_fract_x
 _atom_site_fract_y
 _atom_site_fract_z
 _atom_site_occupancy
  H  H0  6  0.03831959  0.29083595  0.74591180  1
  H  H1  6  0.06101808  0.15387615  0.72113108  1
  H  H2  6  0.12950687  0.40606320  0.86007153  1
  H  H3  6  0.13625801  0.76922190  0.25986613  1
  H  H4  6  0.15424417  0.48928153  0.65550121  1
  H  H5  6  0.22879953  0.74531015  -0.09466964  1
  H  H6  6  0.24081416  0.60424767  0.76845126  1
  H  H7  6  0.28405965  0.58378728  0.11082510  1
  C  C8  6  0.11052617  0.26037383  0.73033516  1
  C  C9  6  0.17836826  0.78189140  0.19596750  1
  C  C10  6  0.22805132  0.46161111  0.63909864  1
  C  C11  6  0.26795376  0.66747565  0.10556983  1
  N  N12  6  -0.03965238  0.73660704  0.14977166  1
  N  N13  6  0.09792608  0.80001212  0.13479726  1
  N  N14  6  0.09995001  0.53758745  0.00183959  1
  N  N15  6  0.12075742  0.24331822  0.57551129  1
  N  N16  6  0.14535555  0.82420211  -0.01639286  1
  N  N17  6  0.19301023  0.66689786  0.17967419  1
  N  N18  6  0.19999635  0.65931331  0.02649321  1
  N  N19  6  0.20103052  0.60067686  0.25268874  1
  O  O20  6  -0.10402730  0.75628402  0.09709864  1
  O  O21  6  -0.07839916  0.66856219  0.21421816  1
  O  O22  6  0.04472503  0.12607996  0.58670027  1
  O  O23  6  0.04691453  0.53059346  -0.06785682  1
  O  O24  6  0.07188536  0.44498475  0.05051625  1
  O  O25  6  0.14377978  0.84320502  -0.15944224  1
  O  O26  6  0.14970771  0.61132679  0.31792210  1
  O  O27  6  0.25889934  0.53849175  0.24487001  1
