###############################################################################################
#
# CIF file generated by modified CIFWriter class 
# in pymatgen (v2025.03.10) https://pymatgen.org/
#
###############################################################################################
data_PBE+MBD_tight_9418204fd011690
_symmetry_space_group_name_H-M   P3_221
_cell_length_a   11.33117042
_cell_length_b   11.33117042
_cell_length_c   17.80499455
_cell_angle_alpha   90.00000000
_cell_angle_beta   90.00000000
_cell_angle_gamma   120.00000000
_symmetry_Int_Tables_number   154
_chemical_formula_moiety   'C4 H8 N8 O8'
_chemical_formula_sum   'H48 C24 N48 O48'
_cell_volume   1979.80319127
_cell_formula_units_Z   6
loop_
 _symmetry_equiv_pos_site_id
 _symmetry_equiv_pos_as_xyz
  1  'x, y, z'
  2  '-y, x-y, z+2/3'
  3  '-x+y, -x, z+1/3'
  4  'y, x, -z'
  5  'x-y, -y, -z+1/3'
  6  '-x, -x+y, -z+2/3'
loop_
 _atom_site_type_symbol
 _atom_site_label
 _atom_site_symmetry_multiplicity
 _atom_site_fract_x
 _atom_site_fract_y
 _atom_site_fract_z
 _atom_site_occupancy
  H  H0  6  -0.13759457  0.52614245  0.01546692  1
  H  H1  6  -0.13393473  0.40417400  0.10782754  1
  H  H2  6  -0.04060177  0.70762467  0.02124402  1
  H  H3  6  -0.03443056  0.48462832  0.18927263  1
  H  H4  6  -0.02768423  0.41562779  -0.07522388  1
  H  H5  6  -0.02601048  0.29360130  0.01705427  1
  H  H6  6  0.12967015  0.53948779  -0.11743078  1
  H  H7  6  0.13139289  0.31400534  0.05067520  1
  C  C8  6  -0.03427686  0.61456803  0.01947749  1
  C  C9  6  -0.03016075  0.46979359  0.12889158  1
  C  C10  6  0.06916443  0.51062979  -0.06591028  1
  C  C11  6  0.07168492  0.36475174  0.04339808  1
  N  N12  6  0.02390917  0.59875435  0.08897872  1
  N  N13  6  0.04407056  0.62060817  -0.04654945  1
  N  N14  6  0.05077811  0.40447182  0.11747116  1
  N  N15  6  0.09609659  0.73460463  -0.09287877  1
  N  N16  6  0.09986372  0.36772418  0.18022588  1
  N  N17  6  0.13318910  0.71206392  0.11990146  1
  N  N18  6  0.13987830  0.47954279  -0.00786877  1
  N  N19  6  0.27491186  0.57356177  0.00606900  1
  O  O20  6  0.07480571  0.82685549  -0.07473382  1
  O  O21  6  0.07673549  0.39870321  0.24219036  1
  O  O22  6  0.14431196  0.83862424  0.50122909  1
  O  O23  6  0.15806564  0.73348397  -0.14976221  1
  O  O24  6  0.17736873  0.69661363  0.18009230  1
  O  O25  6  0.17963107  0.81970113  0.08405386  1
  O  O26  6  0.21253062  0.66702112  0.38845375  1
  O  O27  6  0.32036431  0.64487536  0.63529729  1
