###############################################################################################
#
# CIF file generated by modified CIFWriter class 
# in pymatgen (v2025.03.10) https://pymatgen.org/
#
###############################################################################################
data_PBE+MBD_tight_960d5a89a656aaf
_symmetry_space_group_name_H-M   P-3
_cell_length_a   19.64845055
_cell_length_b   19.64845055
_cell_length_c   6.09784251
_cell_angle_alpha   90.00000000
_cell_angle_beta   90.00000000
_cell_angle_gamma   120.00000000
_symmetry_Int_Tables_number   147
_chemical_formula_moiety   'C4 H8 N8 O8'
_chemical_formula_sum   'H48 C24 N48 O48'
_cell_volume   2038.74754701
_cell_formula_units_Z   6
loop_
 _symmetry_equiv_pos_site_id
 _symmetry_equiv_pos_as_xyz
  1  'x, y, z'
  2  '-x, -y, -z'
  3  '-y, x-y, z'
  4  'y, -x+y, -z'
  5  '-x+y, -x, z'
  6  'x-y, x, -z'
loop_
 _atom_site_type_symbol
 _atom_site_label
 _atom_site_symmetry_multiplicity
 _atom_site_fract_x
 _atom_site_fract_y
 _atom_site_fract_z
 _atom_site_occupancy
  H  H0  6  -0.07501615  0.54551077  0.72450515  1
  H  H1  6  -0.00722706  0.57620483  0.95007838  1
  H  H2  6  0.01169904  0.76804697  0.96187088  1
  H  H3  6  0.03115135  0.69985660  1.10509646  1
  H  H4  6  0.10926234  0.58656096  0.89474629  1
  H  H5  6  0.14620383  0.58666756  0.62612672  1
  H  H6  6  0.15003804  0.70821551  1.07572859  1
  H  H7  6  0.20559303  0.43339235  0.95126318  1
  C  C8  6  -0.01807296  0.59158752  0.78535242  1
  C  C9  6  0.03320890  0.72665934  0.94523245  1
  C  C10  6  0.12111470  0.61364104  0.73114718  1
  C  C11  6  0.16980537  0.74329734  0.92467291  1
  N  N12  6  -0.09138125  0.66117657  0.74108259  1
  N  N13  6  -0.01987249  0.66433752  0.79511933  1
  N  N14  6  0.03317082  0.59185300  0.42243879  1
  N  N15  6  0.04464547  0.59631913  0.64582430  1
  N  N16  6  0.11380298  0.76853971  0.87318536  1
  N  N17  6  0.14191846  0.84376734  0.78012200  1
  N  N18  6  0.17746120  0.69657278  0.75207629  1
  N  N19  6  0.25017124  0.72694058  0.64021100  1
  O  O20  6  -0.14575604  0.59740420  0.67974298  1
  O  O21  6  -0.09326443  0.72219592  0.75946738  1
  O  O22  6  -0.03033946  0.58213703  0.35555217  1
  O  O23  6  0.08702014  0.59695795  0.30485255  1
  O  O24  6  0.09310364  0.86264828  0.73554951  1
  O  O25  6  0.11670877  0.33022876  0.75381950  1
  O  O26  6  0.21072895  0.51521549  0.70956003  1
  O  O27  6  0.25247814  0.68860682  0.48579307  1
