###############################################################################################
#
# CIF file generated by modified CIFWriter class 
# in pymatgen (v2025.03.10) https://pymatgen.org/
#
###############################################################################################
data_PBE+MBD_tight_995189fcfaa4047
_symmetry_space_group_name_H-M   P3_121
_cell_length_a   7.01398316
_cell_length_b   7.01398316
_cell_length_c   44.18690711
_cell_angle_alpha   90.00000000
_cell_angle_beta   90.00000000
_cell_angle_gamma   120.00000000
_symmetry_Int_Tables_number   152
_chemical_formula_moiety   'C4 H8 N8 O8'
_chemical_formula_sum   'H48 C24 N48 O48'
_cell_volume   1882.58100650
_cell_formula_units_Z   6
loop_
 _symmetry_equiv_pos_site_id
 _symmetry_equiv_pos_as_xyz
  1  'x, y, z'
  2  '-y, x-y, z+1/3'
  3  '-x+y, -x, z+2/3'
  4  'y, x, -z'
  5  'x-y, -y, -z+2/3'
  6  '-x, -x+y, -z+1/3'
loop_
 _atom_site_type_symbol
 _atom_site_label
 _atom_site_symmetry_multiplicity
 _atom_site_fract_x
 _atom_site_fract_y
 _atom_site_fract_z
 _atom_site_occupancy
  H  H0  6  -0.18609820  0.37528287  0.41008974  1
  H  H1  6  -0.05780751  0.65609519  0.39884471  1
  H  H2  6  -0.05725838  -0.56826748  0.73648971  1
  H  H3  6  -0.01778759  -0.29513799  0.74049601  1
  H  H4  6  0.06748005  -0.70104886  0.77072029  1
  H  H5  6  0.18145518  0.78082275  0.36424524  1
  H  H6  6  0.19027909  -0.53981538  0.80405574  1
  H  H7  6  0.25612635  0.60363897  0.34506013  1
  C  C8  6  -0.02955766  0.52926342  0.40900193  1
  C  C9  6  0.06465381  -0.39181893  0.73820851  1
  C  C10  6  0.20578069  -0.54679749  0.77947488  1
  C  C11  6  0.25779981  0.67788307  0.36685598  1
  N  N12  6  -0.16982877  0.65398761  0.27240816  1
  N  N13  6  -0.16169682  0.29896334  0.22052080  1
  N  N14  6  -0.15145933  0.20190670  0.30704664  1
  N  N15  6  -0.07650324  0.44805618  0.46316276  1
  N  N16  6  0.04897268  0.58851018  0.43953181  1
  N  N17  6  0.12363630  0.50826201  0.38870615  1
  N  N18  6  0.18855824  -0.32623715  0.70977034  1
  N  N19  6  0.19174885  -0.36723303  0.76515650  1
  O  O20  6  -0.24401131  0.27701242  0.45598700  1
  O  O21  6  -0.14622221  0.40499907  0.19782371  1
  O  O22  6  -0.12074679  0.28709532  0.33232582  1
  O  O23  6  -0.04609235  0.12217243  0.29610637  1
  O  O24  6  -0.02578828  0.65642496  0.28877266  1
  O  O25  6  -0.01445619  0.27868703  0.23265952  1
  O  O26  6  -0.00986356  0.50966049  0.48890648  1
  O  O27  6  0.08039108  0.21956468  0.41542449  1
