###############################################################################################
#
# CIF file generated by modified CIFWriter class 
# in pymatgen (v2025.03.10) https://pymatgen.org/
#
###############################################################################################
data_PBE+MBD_tight_9d551a645a6ba07
_symmetry_space_group_name_H-M   P3_121
_cell_length_a   6.96207992
_cell_length_b   6.96207992
_cell_length_c   43.93175125
_cell_angle_alpha   90.00000000
_cell_angle_beta   90.00000000
_cell_angle_gamma   120.00000000
_symmetry_Int_Tables_number   152
_chemical_formula_moiety   'C4 H8 N8 O8'
_chemical_formula_sum   'H48 C24 N48 O48'
_cell_volume   1844.11141485
_cell_formula_units_Z   6
loop_
 _symmetry_equiv_pos_site_id
 _symmetry_equiv_pos_as_xyz
  1  'x, y, z'
  2  '-y, x-y, z+1/3'
  3  '-x+y, -x, z+2/3'
  4  'y, x, -z'
  5  'x-y, -y, -z+2/3'
  6  '-x, -x+y, -z+1/3'
loop_
 _atom_site_type_symbol
 _atom_site_label
 _atom_site_symmetry_multiplicity
 _atom_site_fract_x
 _atom_site_fract_y
 _atom_site_fract_z
 _atom_site_occupancy
  H  H0  6  -0.18227458  0.46930199  0.07630824  1
  H  H1  6  -0.05618846  -0.24873641  0.59833511  1
  H  H2  6  -0.01611777  0.92653293  0.13957602  1
  H  H3  6  -0.00984697  0.08519689  0.36703118  1
  H  H4  6  0.03028999  -0.07690326  0.43702855  1
  H  H5  6  0.06572022  0.34991301  0.35115228  1
  H  H6  6  0.07976020  0.29108931  0.59755850  1
  H  H7  6  0.08358269  -0.38365217  0.58334651  1
  C  C8  6  -0.09458700  0.64976655  0.07401869  1
  C  C9  6  0.02080256  0.94765019  0.11524620  1
  C  C10  6  0.06590144  0.26343536  0.37186040  1
  C  C11  6  0.09166222  -0.22398455  0.58589712  1
  N  N12  6  -0.07406279  0.28102454  0.39502140  1
  N  N13  6  -0.02284287  0.49212894  0.40406299  1
  N  N14  6  0.01054635  0.74979054  0.10254035  1
  N  N15  6  0.05576521  0.70592310  0.04796907  1
  N  N16  6  0.07383814  0.54006370  0.03281176  1
  N  N17  6  0.07924325  -0.27649307  0.53077555  1
  N  N18  6  0.09543751  -0.14181103  0.55580510  1
  N  N19  6  0.10928698  0.65004539  0.11911832  1
  O  O20  6  -0.12478674  0.50544291  0.42605333  1
  O  O21  6  -0.04280748  0.34781889  0.04189084  1
  O  O22  6  0.05787187  -0.21414359  0.50567159  1
  O  O23  6  0.08581155  -0.44550344  0.53653496  1
  O  O24  6  0.10887994  0.49084044  0.10673048  1
  O  O25  6  0.12225231  0.64933303  0.38941854  1
  O  O26  6  0.18917372  0.73161815  0.14376937  1
  O  O27  6  0.19994933  0.59501831  0.01081426  1
