###############################################################################################
#
# CIF file generated by modified CIFWriter class 
# in pymatgen (v2025.03.10) https://pymatgen.org/
#
###############################################################################################
data_PBE+MBD_tight_9eb8ba823a14258
_symmetry_space_group_name_H-M   P3_212
_cell_length_a   6.92385021
_cell_length_b   6.92385021
_cell_length_c   46.11553949
_cell_angle_alpha   90.00000000
_cell_angle_beta   90.00000000
_cell_angle_gamma   120.00000000
_symmetry_Int_Tables_number   153
_chemical_formula_moiety   'C4 H8 N8 O8'
_chemical_formula_sum   'H48 C24 N48 O48'
_cell_volume   1914.57883158
_cell_formula_units_Z   6
loop_
 _symmetry_equiv_pos_site_id
 _symmetry_equiv_pos_as_xyz
  1  'x, y, z'
  2  '-y, x-y, z+2/3'
  3  '-x+y, -x, z+1/3'
  4  '-y, -x, -z+1/3'
  5  '-x+y, y, -z+2/3'
  6  'x, x-y, -z'
loop_
 _atom_site_type_symbol
 _atom_site_label
 _atom_site_symmetry_multiplicity
 _atom_site_fract_x
 _atom_site_fract_y
 _atom_site_fract_z
 _atom_site_occupancy
  H  H0  6  -0.39536607  0.41335638  0.09076006  1
  H  H1  6  -0.18454255  0.56950151  0.12746543  1
  H  H2  6  -0.12171370  0.50022056  0.94312340  1
  H  H3  6  -0.09208437  0.85087539  0.13787446  1
  H  H4  6  -0.05929864  0.53150336  0.02373443  1
  H  H5  6  0.10713180  0.58555292  0.90573045  1
  H  H6  6  0.22116378  0.58628759  0.75561108  1
  H  H7  6  0.45712650  -0.07993400  0.74164710  1
  C  C8  6  -0.37394559  0.55786823  0.07821816  1
  C  C9  6  -0.09808259  0.74383652  0.12010721  1
  C  C10  6  -0.09075023  0.53525308  0.04687217  1
  C  C11  6  0.18364939  0.48316714  0.91068678  1
  N  N12  6  -0.40707009  0.55987490  0.02533463  1
  N  N13  6  -0.28567626  0.15438401  0.94995217  1
  N  N14  6  -0.22968722  0.01661142  0.90376302  1
  N  N15  6  0.00575232  0.31040299  0.79315918  1
  N  N16  6  0.03684090  -0.14276846  0.75312741  1
  N  N17  6  0.07806779  0.78874978  0.28657003  1
  N  N18  6  0.10422766  0.38907772  0.93912715  1
  N  N19  6  0.13093392  0.32088348  0.88738966  1
  O  O20  6  -0.32749403  0.11348088  0.99828608  1
  O  O21  6  -0.09346049  0.74533155  0.18889572  1
  O  O22  6  -0.07767667  0.28102234  0.72744841  1
  O  O23  6  -0.04109781  0.50324450  0.21287066  1
  O  O24  6  -0.03594539  -0.16120247  0.89991242  1
  O  O25  6  0.03033505  -0.25131318  0.73171966  1
  O  O26  6  0.07043522  0.21686123  0.68912329  1
  O  O27  6  0.44128240  1.58205646  0.30345638  1
