###############################################################################################
#
# CIF file generated by modified CIFWriter class 
# in pymatgen (v2025.03.10) https://pymatgen.org/
#
###############################################################################################
data_PBE+MBD_tight_a9d2db71f718841
_symmetry_space_group_name_H-M   P3_121
_cell_length_a   12.62653746
_cell_length_b   12.62653746
_cell_length_c   13.72861723
_cell_angle_alpha   90.00000000
_cell_angle_beta   90.00000000
_cell_angle_gamma   120.00000000
_symmetry_Int_Tables_number   152
_chemical_formula_moiety   'C4 H8 N8 O8'
_chemical_formula_sum   'H48 C24 N48 O48'
_cell_volume   1895.50952636
_cell_formula_units_Z   6
loop_
 _symmetry_equiv_pos_site_id
 _symmetry_equiv_pos_as_xyz
  1  'x, y, z'
  2  '-y, x-y, z+1/3'
  3  '-x+y, -x, z+2/3'
  4  'y, x, -z'
  5  'x-y, -y, -z+2/3'
  6  '-x, -x+y, -z+1/3'
loop_
 _atom_site_type_symbol
 _atom_site_label
 _atom_site_symmetry_multiplicity
 _atom_site_fract_x
 _atom_site_fract_y
 _atom_site_fract_z
 _atom_site_occupancy
  H  H0  6  0.02112881  0.18857483  0.54493833  1
  H  H1  6  0.05151215  0.79440226  -0.04464839  1
  H  H2  6  0.06218620  0.71617134  0.06051582  1
  H  H3  6  0.07940769  0.53514493  0.54847348  1
  H  H4  6  0.13892138  0.82495774  0.20580725  1
  H  H5  6  0.20770961  0.51081336  0.54794739  1
  H  H6  6  0.22014816  0.67939684  0.07762501  1
  H  H7  6  0.29452893  0.61089689  0.30830948  1
  C  C8  6  0.08361822  0.27241090  0.50588046  1
  C  C9  6  0.11176286  0.79709250  0.01373167  1
  C  C10  6  0.12165957  0.48901706  0.51133769  1
  C  C11  6  0.25207195  0.53296420  0.35785790  1
  N  N12  6  -0.07159830  0.31689946  0.57090048  1
  N  N13  6  -0.01368006  0.15783925  0.35754439  1
  N  N14  6  0.03754253  0.35736672  0.51803099  1
  N  N15  6  0.07215194  0.55476047  0.36097834  1
  N  N16  6  0.09622105  0.24261629  0.40666527  1
  N  N17  6  0.15571085  0.53708038  0.41312828  1
  N  N18  6  0.20664451  0.42129313  0.30161856  1
  N  N19  6  0.21006698  0.77648545  -0.13479520  1
  O  O20  6  -0.12679947  0.20890310  0.59670452  1
  O  O21  6  -0.10851608  0.12507868  0.40242389  1
  O  O22  6  -0.10367131  0.39212694  0.58798365  1
  O  O23  6  -0.02609194  0.52381688  0.40108601  1
  O  O24  6  -0.00051444  0.12565339  0.27664541  1
  O  O25  6  0.10251473  0.60052736  0.27900872  1
  O  O26  6  0.13749258  0.79465450  -0.17971562  1
  O  O27  6  0.25240749  0.53420863  0.16387445  1
