###############################################################################################
#
# CIF file generated by modified CIFWriter class 
# in pymatgen (v2025.03.10) https://pymatgen.org/
#
###############################################################################################
data_PBE+MBD_tight_af3f6a5ad5912b8
_symmetry_space_group_name_H-M   P31c
_cell_length_a   18.50225241
_cell_length_b   18.50225241
_cell_length_c   6.40996892
_cell_angle_alpha   90.00000000
_cell_angle_beta   90.00000000
_cell_angle_gamma   120.00000000
_symmetry_Int_Tables_number   159
_chemical_formula_moiety   'C4 H8 N8 O8'
_chemical_formula_sum   'H48 C24 N48 O48'
_cell_volume   1900.35946484
_cell_formula_units_Z   6
loop_
 _symmetry_equiv_pos_site_id
 _symmetry_equiv_pos_as_xyz
  1  'x, y, z'
  2  '-y, x-y, z'
  3  '-x+y, -x, z'
  4  'y, x, z+1/2'
  5  'x-y, -y, z+1/2'
  6  '-x, -x+y, z+1/2'
loop_
 _atom_site_type_symbol
 _atom_site_label
 _atom_site_symmetry_multiplicity
 _atom_site_fract_x
 _atom_site_fract_y
 _atom_site_fract_z
 _atom_site_occupancy
  H  H0  6  0.03835892  0.30557083  -0.05427109  1
  H  H1  6  0.05462543  0.83776955  0.28001767  1
  H  H2  6  0.08625617  0.63569723  0.30393175  1
  H  H3  6  0.08662974  0.35554739  0.18605737  1
  H  H4  6  0.14950983  0.84763165  0.37842306  1
  H  H5  6  0.16959996  0.73585002  0.38277583  1
  H  H6  6  0.19837441  0.48501248  0.18347668  1
  H  H7  6  0.24378918  0.53675689  -0.05932783  1
  C  C8  6  0.09663943  0.33488876  0.03348854  1
  C  C9  6  0.10656943  0.82739489  0.24488542  1
  C  C10  6  0.12623622  0.70052635  0.25598725  1
  C  C11  6  0.22466967  0.48043933  0.03340868  1
  N  N12  6  -0.01097617  0.68449248  0.19458814  1
  N  N13  6  0.07436299  0.73779496  0.21846182  1
  N  N14  6  0.08033921  0.19702558  -0.04338641  1
  N  N15  6  0.12271138  0.27406432  0.06598364  1
  N  N16  6  0.15369095  0.41370118  -0.29065854  1
  N  N17  6  0.15703757  0.62590348  -0.01553474  1
  N  N18  6  0.15779535  0.41006952  -0.07578318  1
  N  N19  6  0.17512552  0.70217476  0.07681890  1
  O  O20  6  -0.05557747  0.71639811  0.18490608  1
  O  O21  6  -0.03601166  0.60908272  0.18458803  1
  O  O22  6  0.02535404  0.18869608  -0.16427103  1
  O  O23  6  0.04368893  0.89702797  -0.00778311  1
  O  O24  6  0.09410415  0.35449154  -0.37866591  1
  O  O25  6  0.09587723  0.56244800  0.05018671  1
  O  O26  6  0.20460853  0.62900566  -0.15352750  1
  O  O27  6  0.20939627  0.47575243  -0.37887384  1
