###############################################################################################
#
# CIF file generated by modified CIFWriter class 
# in pymatgen (v2025.03.10) https://pymatgen.org/
#
###############################################################################################
data_PBE+MBD_tight_b01dcce2a41c4bf
_symmetry_space_group_name_H-M   P3_221
_cell_length_a   10.78301033
_cell_length_b   10.78301033
_cell_length_c   19.99771188
_cell_angle_alpha   90.00000000
_cell_angle_beta   90.00000000
_cell_angle_gamma   120.00000000
_symmetry_Int_Tables_number   154
_chemical_formula_moiety   'C4 H8 N8 O8'
_chemical_formula_sum   'H48 C24 N48 O48'
_cell_volume   2013.68243043
_cell_formula_units_Z   6
loop_
 _symmetry_equiv_pos_site_id
 _symmetry_equiv_pos_as_xyz
  1  'x, y, z'
  2  '-y, x-y, z+2/3'
  3  '-x+y, -x, z+1/3'
  4  'y, x, -z'
  5  'x-y, -y, -z+1/3'
  6  '-x, -x+y, -z+2/3'
loop_
 _atom_site_type_symbol
 _atom_site_label
 _atom_site_symmetry_multiplicity
 _atom_site_fract_x
 _atom_site_fract_y
 _atom_site_fract_z
 _atom_site_occupancy
  H  H0  6  0.04858029  0.33833329  0.48397489  1
  H  H1  6  0.04908459  0.55774758  0.73140125  1
  H  H2  6  0.10058353  0.73489580  0.47458990  1
  H  H3  6  0.12612067  0.59847496  0.03556027  1
  H  H4  6  0.16010118  0.57258261  0.80146492  1
  H  H5  6  0.19562933  0.65810391  0.11791068  1
  H  H6  6  0.20062591  0.48847326  0.52234108  1
  H  H7  6  0.23599210  0.70931481  0.51249184  1
  C  C8  6  0.14215402  0.44394015  0.47537175  1
  C  C9  6  0.15647378  0.61859520  0.75286234  1
  C  C10  6  0.17544031  0.69582612  0.46634406  1
  C  C11  6  0.21451980  0.62157071  0.06954411  1
  N  N12  6  -0.03089935  0.48773243  0.41670289  1
  N  N13  6  0.08735011  0.80451911  0.74226571  1
  N  N14  6  0.09585298  0.54236070  0.45285915  1
  N  N15  6  0.12332944  0.36516545  0.04344635  1
  N  N16  6  0.18993860  0.76520862  0.76217001  1
  N  N17  6  0.21888151  0.49102780  0.08001924  1
  N  N18  6  0.24089068  0.60457389  0.64191469  1
  N  N19  6  0.25834399  0.60447695  0.71022625  1
  O  O20  6  -0.09247682  0.35860535  0.40358415  1
  O  O21  6  -0.07185175  0.57184139  0.40158634  1
  O  O22  6  -0.02053249  0.71163005  0.71419942  1
  O  O23  6  0.05696153  0.38099435  -0.00232247  1
  O  O24  6  0.07366136  0.18912838  0.42217131  1
  O  O25  6  0.11435442  0.25325917  0.06198296  1
  O  O26  6  0.13670217  0.61120513  0.62146037  1
  O  O27  6  0.26672468  0.66876442  -0.06010403  1
