###############################################################################################
#
# CIF file generated by modified CIFWriter class 
# in pymatgen (v2025.03.10) https://pymatgen.org/
#
###############################################################################################
data_PBE+MBD_tight_b0a84cd1be38ac1
_symmetry_space_group_name_H-M   P3_121
_cell_length_a   10.44192521
_cell_length_b   10.44192521
_cell_length_c   21.89842214
_cell_angle_alpha   90.00000000
_cell_angle_beta   90.00000000
_cell_angle_gamma   120.00000000
_symmetry_Int_Tables_number   152
_chemical_formula_moiety   'C4 H8 N8 O8'
_chemical_formula_sum   'H48 C24 N48 O48'
_cell_volume   2067.78133816
_cell_formula_units_Z   6
loop_
 _symmetry_equiv_pos_site_id
 _symmetry_equiv_pos_as_xyz
  1  'x, y, z'
  2  '-y, x-y, z+1/3'
  3  '-x+y, -x, z+2/3'
  4  'y, x, -z'
  5  'x-y, -y, -z+2/3'
  6  '-x, -x+y, -z+1/3'
loop_
 _atom_site_type_symbol
 _atom_site_label
 _atom_site_symmetry_multiplicity
 _atom_site_fract_x
 _atom_site_fract_y
 _atom_site_fract_z
 _atom_site_occupancy
  H  H0  6  -0.02765006  0.54711010  0.49511841  1
  H  H1  6  0.10036533  0.31873257  0.76549381  1
  H  H2  6  0.10038883  0.87060871  0.36756894  1
  H  H3  6  0.11933455  0.54011587  0.75584778  1
  H  H4  6  0.13596375  0.61784308  0.68080617  1
  H  H5  6  0.15275499  0.70735460  0.50243105  1
  H  H6  6  0.18068655  0.67015187  0.12833031  1
  H  H7  6  0.32002018  0.66786110  0.82355459  1
  C  C8  6  0.07604365  0.61928472  0.47167325  1
  C  C9  6  0.15564118  0.82447758  0.39461751  1
  C  C10  6  0.18678623  0.57896054  0.71416110  1
  C  C11  6  0.29457025  0.69673963  0.11992462  1
  N  N12  6  -0.10718947  0.64390097  0.40966322  1
  N  N13  6  0.04192419  0.68627846  0.42072619  1
  N  N14  6  0.05854766  0.37830038  0.45780939  1
  N  N15  6  0.14336459  0.53256367  0.45355745  1
  N  N16  6  0.16226249  0.54227790  0.03081245  1
  N  N17  6  0.18498767  0.43289954  0.62595708  1
  N  N18  6  0.18947965  0.45087436  0.68940065  1
  N  N19  6  0.29694546  0.62719580  0.06284989  1
  O  O20  6  -0.20096193  0.53798965  0.43922020  1
  O  O21  6  -0.13154381  0.71523400  0.37178563  1
  O  O22  6  -0.07097802  0.32699550  0.47517778  1
  O  O23  6  0.05625500  0.55245334  0.04832318  1
  O  O24  6  0.11791900  0.30702685  0.44456905  1
  O  O25  6  0.14161097  0.82160780  0.27292710  1
  O  O26  6  0.16366832  0.46665656  -0.01170409  1
  O  O27  6  0.18431142  0.53160064  0.59511211  1
