###############################################################################################
#
# CIF file generated by modified CIFWriter class 
# in pymatgen (v2025.03.10) https://pymatgen.org/
#
###############################################################################################
data_PBE+MBD_tight_b51d6eb420ac584
_symmetry_space_group_name_H-M   P3_121
_cell_length_a   12.86286511
_cell_length_b   12.86286511
_cell_length_c   15.62932347
_cell_angle_alpha   90.00000000
_cell_angle_beta   90.00000000
_cell_angle_gamma   120.00000000
_symmetry_Int_Tables_number   152
_chemical_formula_moiety   'C4 H8 N8 O8'
_chemical_formula_sum   'H48 C24 N48 O48'
_cell_volume   2239.47511849
_cell_formula_units_Z   6
loop_
 _symmetry_equiv_pos_site_id
 _symmetry_equiv_pos_as_xyz
  1  'x, y, z'
  2  '-y, x-y, z+1/3'
  3  '-x+y, -x, z+2/3'
  4  'y, x, -z'
  5  'x-y, -y, -z+2/3'
  6  '-x, -x+y, -z+1/3'
loop_
 _atom_site_type_symbol
 _atom_site_label
 _atom_site_symmetry_multiplicity
 _atom_site_fract_x
 _atom_site_fract_y
 _atom_site_fract_z
 _atom_site_occupancy
  H  H0  6  -0.01535868  0.68422058  0.27693180  1
  H  H1  6  0.11623808  0.45490511  0.30741415  1
  H  H2  6  0.13841321  0.37099163  0.73504071  1
  H  H3  6  0.14443167  0.74954211  0.28527512  1
  H  H4  6  0.14473822  0.29239783  0.82782526  1
  H  H5  6  0.22080114  0.61141002  0.29343476  1
  H  H6  6  0.27265977  0.59420717  0.73345154  1
  H  H7  6  0.32060645  0.65961946  0.49935421  1
  C  C8  6  0.05730425  0.68481892  0.31356490  1
  C  C9  6  0.14054541  0.54533092  0.32824877  1
  C  C10  6  0.16570480  0.80190846  0.44876692  1
  C  C11  6  0.26499575  0.67491630  0.45412140  1
  N  N12  6  -0.05386684  0.47797897  0.25883266  1
  N  N13  6  -0.05282178  0.66956754  0.44426097  1
  N  N14  6  0.04064769  0.56460986  0.30903844  1
  N  N15  6  0.05745363  0.72461325  0.40059233  1
  N  N16  6  0.11530274  0.46310834  0.47208727  1
  N  N17  6  0.17335760  0.56073454  0.41812505  1
  N  N18  6  0.21597169  0.74066528  0.49677096  1
  N  N19  6  0.22556331  0.75431679  0.58680832  1
  O  O20  6  -0.14051020  0.59790770  0.40199640  1
  O  O21  6  -0.12107277  0.50884066  0.22477520  1
  O  O22  6  -0.06210020  0.37966446  0.25255290  1
  O  O23  6  -0.05158847  0.69737229  0.51914274  1
  O  O24  6  0.03667921  0.36848161  0.44078649  1
  O  O25  6  0.14667444  0.47902353  0.54812573  1
  O  O26  6  0.17379621  0.80062408  0.62075904  1
  O  O27  6  0.28066122  0.56863271  0.95603663  1
