###############################################################################################
#
# CIF file generated by modified CIFWriter class 
# in pymatgen (v2025.03.10) https://pymatgen.org/
#
###############################################################################################
data_PBE+MBD_tight_b7a4695ca75a6c1
_symmetry_space_group_name_H-M   P-3
_cell_length_a   18.86473530
_cell_length_b   18.86473530
_cell_length_c   6.40795238
_cell_angle_alpha   90.00000000
_cell_angle_beta   90.00000000
_cell_angle_gamma   120.00000000
_symmetry_Int_Tables_number   147
_chemical_formula_moiety   'C4 H8 N8 O8'
_chemical_formula_sum   'H48 C24 N48 O48'
_cell_volume   1974.92832653
_cell_formula_units_Z   6
loop_
 _symmetry_equiv_pos_site_id
 _symmetry_equiv_pos_as_xyz
  1  'x, y, z'
  2  '-x, -y, -z'
  3  '-y, x-y, z'
  4  'y, -x+y, -z'
  5  '-x+y, -x, z'
  6  'x-y, x, -z'
loop_
 _atom_site_type_symbol
 _atom_site_label
 _atom_site_symmetry_multiplicity
 _atom_site_fract_x
 _atom_site_fract_y
 _atom_site_fract_z
 _atom_site_occupancy
  H  H0  6  -0.02920298  0.67412204  -0.01323276  1
  H  H1  6  -0.01835227  0.68528867  0.26212535  1
  H  H2  6  0.01668948  0.61134674  0.44420277  1
  H  H3  6  0.02503283  0.53210779  0.31565968  1
  H  H4  6  0.11596763  0.80814834  0.39689613  1
  H  H5  6  0.12349435  0.30561840  0.20088254  1
  H  H6  6  0.15716973  0.73507402  0.57071499  1
  H  H7  6  0.24583539  0.73086651  0.49065494  1
  C  C8  6  0.01374809  0.68965424  0.11562268  1
  C  C9  6  0.05103172  0.59827596  0.32715635  1
  C  C10  6  0.14422630  0.81208290  0.24395865  1
  C  C11  6  0.18545223  0.71968590  0.44160232  1
  N  N12  6  0.04114914  0.63043170  0.13087965  1
  N  N13  6  0.06173680  0.60568310  -0.04996837  1
  N  N14  6  0.07965360  0.77347093  0.08803627  1
  N  N15  6  0.08273289  0.81622173  -0.09307110  1
  N  N16  6  0.13585741  0.63323397  0.38854300  1
  N  N17  6  0.16204005  0.57969872  0.45729220  1
  N  N18  6  0.19346137  0.77300344  0.26888984  1
  N  N19  6  0.21910256  0.46560856  0.10618573  1
  O  O20  6  0.03049582  0.77880365  -0.22788069  1
  O  O21  6  0.05375734  0.63568597  -0.21378399  1
  O  O22  6  0.08655663  0.55688529  -0.03469201  1
  O  O23  6  0.11149508  0.24800019  -0.10335346  1
  O  O24  6  0.11608157  0.50599962  0.42268762  1
  O  O25  6  0.17497297  0.42501910  -0.04082246  1
  O  O26  6  0.22825669  0.60980993  0.54524698  1
  O  O27  6  0.25690069  0.53995690  0.12282295  1
