###############################################################################################
#
# CIF file generated by modified CIFWriter class 
# in pymatgen (v2025.03.10) https://pymatgen.org/
#
###############################################################################################
data_PBE+MBD_tight_b7f99c3366df5e3
_symmetry_space_group_name_H-M   P3_212
_cell_length_a   12.07423469
_cell_length_b   12.07423469
_cell_length_c   18.26488559
_cell_angle_alpha   90.00000000
_cell_angle_beta   90.00000000
_cell_angle_gamma   120.00000000
_symmetry_Int_Tables_number   153
_chemical_formula_moiety   'C4 H8 N8 O8'
_chemical_formula_sum   'H48 C24 N48 O48'
_cell_volume   2306.03988246
_cell_formula_units_Z   6
loop_
 _symmetry_equiv_pos_site_id
 _symmetry_equiv_pos_as_xyz
  1  'x, y, z'
  2  '-y, x-y, z+2/3'
  3  '-x+y, -x, z+1/3'
  4  '-y, -x, -z+1/3'
  5  '-x+y, y, -z+2/3'
  6  'x, x-y, -z'
loop_
 _atom_site_type_symbol
 _atom_site_label
 _atom_site_symmetry_multiplicity
 _atom_site_fract_x
 _atom_site_fract_y
 _atom_site_fract_z
 _atom_site_occupancy
  H  H0  6  0.33449801  0.27063764  0.99310855  1
  H  H1  6  0.35969902  0.30175165  0.16275960  1
  H  H2  6  0.42115901  0.52875043  0.47915476  1
  H  H3  6  0.46490107  0.41387934  0.45076568  1
  H  H4  6  0.49025864  0.32003843  0.95562895  1
  H  H5  6  0.49729152  0.32063051  0.11453754  1
  H  H6  6  0.58449521  0.39570180  0.72388934  1
  H  H7  6  0.59857381  0.38090083  0.51421249  1
  C  C8  6  0.39282877  0.30133049  0.94340181  1
  C  C9  6  0.41678603  0.25679981  0.15017924  1
  C  C10  6  0.48683921  0.49845044  0.86416550  1
  C  C11  6  0.54200797  0.36732445  0.77826128  1
  N  N12  6  0.20491748  0.12703442  0.88197665  1
  N  N13  6  0.34065147  0.13989181  0.11086579  1
  N  N14  6  0.37760345  0.48736129  0.97827444  1
  N  N15  6  0.38294948  0.42571575  0.74458885  1
  N  N16  6  0.39602762  -0.02213964  0.07929419  1
  N  N17  6  0.45839532  0.30114749  0.28160173  1
  N  N18  6  0.46843510  0.22813401  0.78068254  1
  N  N19  6  0.46975987  0.42895519  0.79697580  1
  O  O20  6  0.14484005  0.15990684  0.92160717  1
  O  O21  6  0.16414573  0.12368109  0.16279598  1
  O  O22  6  0.32111590  0.47650431  0.76155245  1
  O  O23  6  0.32706274  0.42751013  1.03463210  1
  O  O24  6  0.37782833  0.37042601  0.68696643  1
  O  O25  6  0.39630515  0.35572613  0.27685049  1
  O  O26  6  0.40113099  0.58808444  0.36751750  1
  O  O27  6  0.51699530  0.21771055  0.66302051  1
