###############################################################################################
#
# CIF file generated by modified CIFWriter class 
# in pymatgen (v2025.03.10) https://pymatgen.org/
#
###############################################################################################
data_PBE+MBD_tight_b8dfd14a23b7495
_symmetry_space_group_name_H-M   P3_221
_cell_length_a   6.77323832
_cell_length_b   6.77323832
_cell_length_c   45.45656309
_cell_angle_alpha   90.00000000
_cell_angle_beta   90.00000000
_cell_angle_gamma   120.00000000
_symmetry_Int_Tables_number   154
_chemical_formula_moiety   'C4 H8 N8 O8'
_chemical_formula_sum   'H48 C24 N48 O48'
_cell_volume   1806.00913199
_cell_formula_units_Z   6
loop_
 _symmetry_equiv_pos_site_id
 _symmetry_equiv_pos_as_xyz
  1  'x, y, z'
  2  '-y, x-y, z+2/3'
  3  '-x+y, -x, z+1/3'
  4  'y, x, -z'
  5  'x-y, -y, -z+1/3'
  6  '-x, -x+y, -z+2/3'
loop_
 _atom_site_type_symbol
 _atom_site_label
 _atom_site_symmetry_multiplicity
 _atom_site_fract_x
 _atom_site_fract_y
 _atom_site_fract_z
 _atom_site_occupancy
  H  H0  6  -0.07358879  0.65659069  0.55492472  1
  H  H1  6  -0.05035089  0.41762070  0.56708183  1
  H  H2  6  -0.04267252  0.35850010  0.94638823  1
  H  H3  6  0.00743043  0.61863983  0.92957139  1
  H  H4  6  0.01863677  0.39071773  0.61421287  1
  H  H5  6  0.07151107  0.61574807  0.63932072  1
  H  H6  6  0.10427235  0.68609682  0.88380382  1
  H  H7  6  0.15369155  0.49240836  0.86231685  1
  C  C8  6  0.04061123  0.60424626  0.56470625  1
  C  C9  6  0.08530115  0.51619046  0.93584633  1
  C  C10  6  0.12882553  0.57290539  0.61909096  1
  C  C11  6  0.20729131  0.60270323  0.88171134  1
  N  N12  6  0.06854179  0.74918903  0.24288800  1
  N  N13  6  0.07130479  0.25617864  0.26496169  1
  N  N14  6  0.10492651  0.69736558  0.59439745  1
  N  N15  6  0.16301398  0.46548686  0.90834362  1
  N  N16  6  0.20703378  0.44265080  0.18533327  1
  N  N17  6  0.22910790  0.67433684  0.54447755  1
  N  N18  6  0.24075002  0.53809405  0.98523096  1
  N  N19  6  0.26343522  0.63800577  0.95726617  1
  O  O20  6  -0.04051276  0.66315171  0.22022560  1
  O  O21  6  -0.03638535  0.15297392  0.24269615  1
  O  O22  6  -0.01014363  0.76411435  0.26671942  1
  O  O23  6  -0.00664516  0.23764985  0.28976668  1
  O  O24  6  0.08024728  0.34405383  0.98864435  1
  O  O25  6  0.09815623  0.85900200  0.51658751  1
  O  O26  6  0.18281978  0.56153037  0.16685770  1
  O  O27  6  0.27482959  0.61952351  0.33735015  1
