###############################################################################################
#
# CIF file generated by modified CIFWriter class 
# in pymatgen (v2025.03.10) https://pymatgen.org/
#
###############################################################################################
data_PBE+MBD_tight_b974a7d6eec77e7
_symmetry_space_group_name_H-M   P6_5
_cell_length_a   12.76249471
_cell_length_b   12.76249471
_cell_length_c   13.47918931
_cell_angle_alpha   90.00000000
_cell_angle_beta   90.00000000
_cell_angle_gamma   120.00000000
_symmetry_Int_Tables_number   170
_chemical_formula_moiety   'C4 H8 N8 O8'
_chemical_formula_sum   'H48 C24 N48 O48'
_cell_volume   1901.36525872
_cell_formula_units_Z   6
loop_
 _symmetry_equiv_pos_site_id
 _symmetry_equiv_pos_as_xyz
  1  'x, y, z'
  2  'x-y, x, z+5/6'
  3  '-y, x-y, z+2/3'
  4  '-x, -y, z+1/2'
  5  '-x+y, -x, z+1/3'
  6  'y, -x+y, z+1/6'
loop_
 _atom_site_type_symbol
 _atom_site_label
 _atom_site_symmetry_multiplicity
 _atom_site_fract_x
 _atom_site_fract_y
 _atom_site_fract_z
 _atom_site_occupancy
  H  H0  6  0.01671392  0.33818457  0.41844454  1
  H  H1  6  0.04901399  0.34278212  0.11612292  1
  H  H2  6  0.10851106  0.68905755  0.41064304  1
  H  H3  6  0.11276077  0.68518020  0.10859388  1
  H  H4  6  0.15650809  0.45052376  0.36503745  1
  H  H5  6  0.17284013  0.45936673  0.18440634  1
  H  H6  6  0.20422471  0.64117781  0.35229341  1
  H  H7  6  0.21207638  0.64708780  0.17325046  1
  C  C8  6  0.05748298  0.40735306  0.36072072  1
  C  C9  6  0.07409406  0.41054551  0.17472949  1
  C  C10  6  0.11307082  0.63048289  0.35363671  1
  C  C11  6  0.11881858  0.63047505  0.16838636  1
  N  N12  6  -0.08552970  0.47308829  0.40754170  1
  N  N13  6  -0.07328480  0.46341603  0.11252106  1
  N  N14  6  -0.05918450  0.22067612  0.26306691  1
  N  N15  6  0.01595594  0.34866147  0.26547884  1
  N  N16  6  0.03027936  0.50395919  0.37856139  1
  N  N17  6  0.04325121  0.50217917  0.14537874  1
  N  N18  6  0.07754168  0.77461690  0.25787629  1
  N  N19  6  0.08493364  0.66519676  0.25982222  1
  O  O20  6  -0.15871612  0.36488308  0.41990995  1
  O  O21  6  -0.14012463  0.35257632  0.10226862  1
  O  O22  6  -0.10587891  0.55734015  0.41936215  1
  O  O23  6  -0.10296645  0.17049258  0.34160347  1
  O  O24  6  -0.10049716  0.54120606  0.09553723  1
  O  O25  6  -0.07450344  0.17293954  0.18124647  1
  O  O26  6  0.06640391  0.80874326  0.17633188  1
  O  O27  6  0.08172569  0.82070104  0.33822584  1
