###############################################################################################
#
# CIF file generated by modified CIFWriter class 
# in pymatgen (v2025.03.10) https://pymatgen.org/
#
###############################################################################################
data_PBE+MBD_tight_b9ab85a08f84098
_symmetry_space_group_name_H-M   P6_4
_cell_length_a   20.11136476
_cell_length_b   20.11136476
_cell_length_c   5.94176868
_cell_angle_alpha   90.00000000
_cell_angle_beta   90.00000000
_cell_angle_gamma   120.00000000
_symmetry_Int_Tables_number   172
_chemical_formula_moiety   'C4 H8 N8 O8'
_chemical_formula_sum   'H48 C24 N48 O48'
_cell_volume   2081.27495228
_cell_formula_units_Z   6
loop_
 _symmetry_equiv_pos_site_id
 _symmetry_equiv_pos_as_xyz
  1  'x, y, z'
  2  'x-y, x, z+2/3'
  3  '-y, x-y, z+1/3'
  4  '-x, -y, z'
  5  '-x+y, -x, z+2/3'
  6  'y, -x+y, z+1/3'
loop_
 _atom_site_type_symbol
 _atom_site_label
 _atom_site_symmetry_multiplicity
 _atom_site_fract_x
 _atom_site_fract_y
 _atom_site_fract_z
 _atom_site_occupancy
  H  H0  6  0.03053360  0.44128627  0.15724812  1
  H  H1  6  0.05960915  0.40580372  0.39167667  1
  H  H2  6  0.06790133  0.26685521  0.07380900  1
  H  H3  6  0.07893801  0.30974143  0.34619426  1
  H  H4  6  0.11269321  0.70586599  0.93022975  1
  H  H5  6  0.17570522  0.77538966  1.13216057  1
  H  H6  6  0.20412507  0.49224915  0.50738516  1
  H  H7  6  0.25737904  0.57794425  0.34576061  1
  C  C8  6  0.07641776  0.43305657  0.22538602  1
  C  C9  6  0.10053782  0.31935548  0.17245918  1
  C  C10  6  0.16584283  0.76054900  0.95285287  1
  C  C11  6  0.21561201  0.51661266  0.33719468  1
  N  N12  6  0.08793580  0.38003653  0.08331321  1
  N  N13  6  0.09358929  0.79892707  0.69822651  1
  N  N14  6  0.10264178  0.39814627  -0.14120820  1
  N  N15  6  0.14324543  0.57272120  0.17093851  1
  N  N16  6  0.14463088  0.50775750  0.24645938  1
  N  N17  6  0.15728380  0.81999298  0.83875734  1
  N  N18  6  0.21637105  0.69803700  0.71002973  1
  N  N19  6  0.23062250  0.75419309  0.87336355  1
  O  O20  6  0.04523557  0.73012050  0.69020030  1
  O  O21  6  0.08154154  0.56388919  0.10352275  1
  O  O22  6  0.08952709  0.85061277  0.60131662  1
  O  O23  6  0.09428722  0.45101045  -0.21277802  1
  O  O24  6  0.12441588  0.36060484  -0.25293329  1
  O  O25  6  0.15222652  0.66631379  0.62366308  1
  O  O26  6  0.20360292  0.63403704  0.18244992  1
  O  O27  6  0.26964869  0.68701371  0.66588292  1
