###############################################################################################
#
# CIF file generated by modified CIFWriter class 
# in pymatgen (v2025.03.10) https://pymatgen.org/
#
###############################################################################################
data_PBE+MBD_tight_c3aed0416ce9e2
_symmetry_space_group_name_H-M   P3_221
_cell_length_a   6.94375174
_cell_length_b   6.94375174
_cell_length_c   45.66967379
_cell_angle_alpha   90.00000000
_cell_angle_beta   90.00000000
_cell_angle_gamma   120.00000000
_symmetry_Int_Tables_number   154
_chemical_formula_moiety   'C4 H8 N8 O8'
_chemical_formula_sum   'H48 C24 N48 O48'
_cell_volume   1906.98339278
_cell_formula_units_Z   6
loop_
 _symmetry_equiv_pos_site_id
 _symmetry_equiv_pos_as_xyz
  1  'x, y, z'
  2  '-y, x-y, z+2/3'
  3  '-x+y, -x, z+1/3'
  4  'y, x, -z'
  5  'x-y, -y, -z+1/3'
  6  '-x, -x+y, -z+2/3'
loop_
 _atom_site_type_symbol
 _atom_site_label
 _atom_site_symmetry_multiplicity
 _atom_site_fract_x
 _atom_site_fract_y
 _atom_site_fract_z
 _atom_site_occupancy
  H  H0  6  -0.46808555  -1.80370936  0.91400516  1
  H  H1  6  -0.32935059  -1.34200821  0.97475002  1
  H  H2  6  -0.19558714  -1.65449496  0.92935625  1
  H  H3  6  -0.13718907  -1.43177337  0.96494305  1
  H  H4  6  0.01624363  -1.34142413  0.86021489  1
  H  H5  6  0.10655608  -1.38870551  0.89459001  1
  H  H6  6  0.18467358  -0.89459106  0.92273823  1
  H  H7  6  0.19297427  -1.14551811  0.93005229  1
  C  C8  6  -0.32108350  -1.63940942  0.91640747  1
  C  C9  6  -0.22951102  -1.35181250  0.95698141  1
  C  C10  6  -0.02104674  -1.36485733  0.88360726  1
  C  C11  6  0.08639729  -1.07554611  0.92435893  1
  N  N12  6  -0.53122069  -1.44342947  0.92299950  1
  N  N13  6  -0.37288281  -1.49176423  0.93364446  1
  N  N14  6  -0.35422483  -1.69625979  0.86339678  1
  N  N15  6  -0.23885777  -1.55947986  0.88756862  1
  N  N16  6  -0.10633255  -1.06398252  0.88039678  1
  N  N17  6  -0.08044891  -0.95114304  0.96230178  1
  N  N18  6  -0.07403514  -1.12475947  0.94805052  1
  N  N19  6  -0.01040768  -1.16762426  0.89620157  1
  O  O20  6  -0.63923970  -1.54976398  0.90163615  1
  O  O21  6  -0.54921490  -1.29686260  0.93595637  1
  O  O22  6  -0.52841578  -1.86790378  0.86880219  1
  O  O23  6  -0.26887700  -1.63209700  0.83936172  1
  O  O24  6  -0.22131239  -0.99910791  0.98160821  1
  O  O25  6  -0.18167663  -1.13983178  0.85628294  1
  O  O26  6  -0.10837049  -0.90738840  0.89286876  1
  O  O27  6  0.05849655  -0.75985227  0.95508377  1
