###############################################################################################
#
# CIF file generated by modified CIFWriter class 
# in pymatgen (v2025.03.10) https://pymatgen.org/
#
###############################################################################################
data_PBE+MBD_tight_c4a9bc1d3dc1261
_symmetry_space_group_name_H-M   P31c
_cell_length_a   13.86747660
_cell_length_b   13.86747660
_cell_length_c   11.73648261
_cell_angle_alpha   90.00000000
_cell_angle_beta   90.00000000
_cell_angle_gamma   120.00000000
_symmetry_Int_Tables_number   159
_chemical_formula_moiety   'C4 H8 N8 O8'
_chemical_formula_sum   'H48 C24 N48 O48'
_cell_volume   1954.62511451
_cell_formula_units_Z   6
loop_
 _symmetry_equiv_pos_site_id
 _symmetry_equiv_pos_as_xyz
  1  'x, y, z'
  2  '-y, x-y, z'
  3  '-x+y, -x, z'
  4  'y, x, z+1/2'
  5  'x-y, -y, z+1/2'
  6  '-x, -x+y, z+1/2'
loop_
 _atom_site_type_symbol
 _atom_site_label
 _atom_site_symmetry_multiplicity
 _atom_site_fract_x
 _atom_site_fract_y
 _atom_site_fract_z
 _atom_site_occupancy
  H  H0  6  0.02221768  0.64625901  0.73536617  1
  H  H1  6  0.04361795  0.42570298  0.46890058  1
  H  H2  6  0.06771314  0.74324280  0.40001261  1
  H  H3  6  0.09526380  0.40682319  0.81117728  1
  H  H4  6  0.14461706  0.65093043  0.68068202  1
  H  H5  6  0.16300388  0.69746243  0.43696358  1
  H  H6  6  0.18627120  0.51619847  0.50346202  1
  H  H7  6  0.21711632  0.51715851  0.74760683  1
  C  C8  6  0.09416181  0.69208987  0.67935424  1
  C  C9  6  0.11272753  0.43446598  0.52131412  1
  C  C10  6  0.12189736  0.74302147  0.46769615  1
  C  C11  6  0.14752183  0.43173468  0.73486696  1
  N  N12  6  -0.06562412  0.62860908  0.55040252  1
  N  N13  6  -0.03343641  0.39976664  0.66132350  1
  N  N14  6  0.05081368  0.68653216  0.56583609  1
  N  N15  6  0.06017109  0.23939139  0.49221828  1
  N  N16  6  0.07905117  0.43060331  0.63950693  1
  N  N17  6  0.11701901  0.86849674  0.74956442  1
  N  N18  6  0.14427770  0.35319697  0.48932225  1
  N  N19  6  0.16601283  0.80364518  0.72107261  1
  O  O20  6  -0.12391070  0.59248408  0.63525147  1
  O  O21  6  -0.09807459  0.61609607  0.45106221  1
  O  O22  6  -0.09049760  0.39400745  0.57958238  1
  O  O23  6  -0.06190817  0.38798182  0.76202571  1
  O  O24  6  -0.03475629  0.22221174  0.50655084  1
  O  O25  6  0.01533556  0.81940901  0.75101416  1
  O  O26  6  0.03279800  0.21489771  0.76717966  1
  O  O27  6  0.08057684  0.90869197  0.48183684  1
