###############################################################################################
#
# CIF file generated by modified CIFWriter class 
# in pymatgen (v2025.03.10) https://pymatgen.org/
#
###############################################################################################
data_PBE+MBD_tight_c549a8d3a81320e
_symmetry_space_group_name_H-M   P6_4
_cell_length_a   15.27292856
_cell_length_b   15.27292856
_cell_length_c   9.27247773
_cell_angle_alpha   90.00000000
_cell_angle_beta   90.00000000
_cell_angle_gamma   120.00000000
_symmetry_Int_Tables_number   172
_chemical_formula_moiety   'C4 H8 N8 O8'
_chemical_formula_sum   'H48 C24 N48 O48'
_cell_volume   1873.14359316
_cell_formula_units_Z   6
loop_
 _symmetry_equiv_pos_site_id
 _symmetry_equiv_pos_as_xyz
  1  'x, y, z'
  2  'x-y, x, z+2/3'
  3  '-y, x-y, z+1/3'
  4  '-x, -y, z'
  5  '-x+y, -x, z+2/3'
  6  'y, -x+y, z+1/3'
loop_
 _atom_site_type_symbol
 _atom_site_label
 _atom_site_symmetry_multiplicity
 _atom_site_fract_x
 _atom_site_fract_y
 _atom_site_fract_z
 _atom_site_occupancy
  H  H0  6  0.00582286  0.82499028  0.80473654  1
  H  H1  6  0.02429422  0.75826013  0.94974645  1
  H  H2  6  0.03230057  0.31430711  0.34252183  1
  H  H3  6  0.03922757  0.58781009  0.72149985  1
  H  H4  6  0.04027232  0.62557380  0.90523525  1
  H  H5  6  0.15405450  0.34379419  0.40922433  1
  H  H6  6  0.20408615  0.71263122  1.03073610  1
  H  H7  6  0.27336723  0.58546273  0.26973228  1
  C  C8  6  0.05751368  0.80266411  0.85131411  1
  C  C9  6  0.07756799  0.64888234  0.79958363  1
  C  C10  6  0.10969169  0.33579794  0.31184660  1
  C  C11  6  0.24554276  0.73544235  0.92812328  1
  N  N12  6  0.01134635  0.17081760  0.19109187  1
  N  N13  6  0.07045472  0.73555418  0.75343307  1
  N  N14  6  0.07767705  0.75658042  0.60612409  1
  N  N15  6  0.10482142  0.45195062  0.13793130  1
  N  N16  6  0.10583515  0.25676673  0.22100407  1
  N  N17  6  0.15863211  0.43445428  0.24149193  1
  N  N18  6  0.18188586  0.67063792  0.81209538  1
  N  N19  6  0.20692683  0.60223647  0.75002368  1
  O  O20  6  -0.06390221  0.17338764  0.23267304  1
  O  O21  6  0.01186328  0.10189272  0.12488870  1
  O  O22  6  0.01621612  0.38436056  0.11858711  1
  O  O23  6  0.07715249  0.83389186  0.57091591  1
  O  O24  6  0.08381858  0.69602128  0.52511021  1
  O  O25  6  0.14337329  0.53621057  0.67129411  1
  O  O26  6  0.14898515  0.53260486  0.07185472  1
  O  O27  6  0.29066147  0.61384488  0.77833406  1
