###############################################################################################
#
# CIF file generated by modified CIFWriter class 
# in pymatgen (v2025.03.10) https://pymatgen.org/
#
###############################################################################################
data_PBE+MBD_tight_c5e248644a4a8f6
_symmetry_space_group_name_H-M   P-3
_cell_length_a   12.65230913
_cell_length_b   12.65230913
_cell_length_c   13.16094534
_cell_angle_alpha   90.00000000
_cell_angle_beta   90.00000000
_cell_angle_gamma   120.00000000
_symmetry_Int_Tables_number   147
_chemical_formula_moiety   'C4 H8 N8 O8'
_chemical_formula_sum   'H48 C24 N48 O48'
_cell_volume   1824.55645555
_cell_formula_units_Z   6
loop_
 _symmetry_equiv_pos_site_id
 _symmetry_equiv_pos_as_xyz
  1  'x, y, z'
  2  '-x, -y, -z'
  3  '-y, x-y, z'
  4  'y, -x+y, -z'
  5  '-x+y, -x, z'
  6  'x-y, x, -z'
loop_
 _atom_site_type_symbol
 _atom_site_label
 _atom_site_symmetry_multiplicity
 _atom_site_fract_x
 _atom_site_fract_y
 _atom_site_fract_z
 _atom_site_occupancy
  H  H0  6  -0.02710850  0.43000829  0.35336829  1
  H  H1  6  -0.02041279  0.83224978  0.14419041  1
  H  H2  6  -0.01661571  0.74237797  0.44049769  1
  H  H3  6  0.01194468  0.54304511  0.06067452  1
  H  H4  6  0.09872711  0.57487515  0.31727056  1
  H  H5  6  0.09878424  0.75215919  0.35676110  1
  H  H6  6  0.10087976  0.81286580  0.19142432  1
  H  H7  6  0.11142861  0.64595195  0.15379718  1
  C  C8  6  -0.00121570  0.51703843  0.31656790  1
  C  C9  6  -0.00016298  0.70981416  0.36866287  1
  C  C10  6  0.00147139  0.76976818  0.18360117  1
  C  C11  6  0.01516435  0.58611166  0.13301275  1
  N  N12  6  -0.14042741  0.38123650  0.18603600  1
  N  N13  6  -0.11870938  0.51930434  0.46404057  1
  N  N14  6  -0.10059212  0.65519968  0.02979456  1
  N  N15  6  -0.05263596  0.57807755  0.37569912  1
  N  N16  6  -0.04808603  0.74898784  0.28568368  1
  N  N17  6  -0.04160501  0.66069200  0.12148619  1
  N  N18  6  -0.03910868  0.49397621  0.21150986  1
  N  N19  6  0.08880571  -0.14914766  0.69570319  1
  O  O20  6  -0.19166427  0.30913156  0.25616525  1
  O  O21  6  -0.16819033  0.36341463  0.09594838  1
  O  O22  6  -0.14459881  0.57903845  0.52171519  1
  O  O23  6  -0.14451829  0.41275403  0.47686723  1
  O  O24  6  -0.11138460  0.57875863  -0.03310411  1
  O  O25  6  0.01986909  -0.19317885  0.76914990  1
  O  O26  6  0.06496549  -0.18544700  0.60760002  1
  O  O27  6  0.13463521  -0.13816098  0.97991923  1
