###############################################################################################
#
# CIF file generated by modified CIFWriter class 
# in pymatgen (v2025.03.10) https://pymatgen.org/
#
###############################################################################################
data_PBE+MBD_tight_cd613e3d8f16adf
_symmetry_space_group_name_H-M   P-3
_cell_length_a   15.43082386
_cell_length_b   15.43082386
_cell_length_c   9.61043854
_cell_angle_alpha   90.00000000
_cell_angle_beta   90.00000000
_cell_angle_gamma   120.00000000
_symmetry_Int_Tables_number   147
_chemical_formula_moiety   'C4 H8 N8 O8'
_chemical_formula_sum   'H48 C24 N48 O48'
_cell_volume   1981.76459632
_cell_formula_units_Z   6
loop_
 _symmetry_equiv_pos_site_id
 _symmetry_equiv_pos_as_xyz
  1  'x, y, z'
  2  '-x, -y, -z'
  3  '-y, x-y, z'
  4  'y, -x+y, -z'
  5  '-x+y, -x, z'
  6  'x-y, x, -z'
loop_
 _atom_site_type_symbol
 _atom_site_label
 _atom_site_symmetry_multiplicity
 _atom_site_fract_x
 _atom_site_fract_y
 _atom_site_fract_z
 _atom_site_occupancy
  H  H0  6  -0.18583133  0.29358891  0.83271328  1
  H  H1  6  -0.14293600  0.30168225  1.00806180  1
  H  H2  6  -0.10047072  0.28650044  0.54152715  1
  H  H3  6  -0.09929920  0.41455101  0.68769609  1
  H  H4  6  0.01574089  0.30639081  0.47318279  1
  H  H5  6  0.01894870  0.51854717  0.73795221  1
  H  H6  6  0.09638015  0.21999956  0.24296153  1
  H  H7  6  0.16197446  0.34349491  0.31742020  1
  C  C8  6  -0.12571424  0.29741391  0.89876141  1
  C  C9  6  -0.11759583  0.16965276  0.74319305  1
  C  C10  6  -0.02351750  0.43735411  0.72521840  1
  C  C11  6  -0.02311384  0.30709178  0.56762050  1
  N  N12  6  -0.14238475  0.14294205  0.99501071  1
  N  N13  6  -0.11855416  0.20827202  0.88104541  1
  N  N14  6  -0.03522733  0.38906371  0.85822214  1
  N  N15  6  -0.02763416  0.23404329  0.66531341  1
  N  N16  6  0.02769681  0.40932830  0.62238489  1
  N  N17  6  0.04409210  0.43291312  0.95132813  1
  N  N18  6  0.04623730  0.20627962  0.65470118  1
  N  N19  6  0.10478220  0.48481958  0.54583551  1
  O  O20  6  -0.15795827  0.17152684  1.10703552  1
  O  O21  6  0.03130213  0.39233626  1.06595771  1
  O  O22  6  0.03413192  0.13406205  0.72148497  1
  O  O23  6  0.06336556  0.20948489  0.02711572  1
  O  O24  6  0.11763144  0.25939162  0.57822902  1
  O  O25  6  0.11989129  0.50900937  0.91203027  1
  O  O26  6  0.13119556  0.57208440  0.57728505  1
  O  O27  6  0.14102359  0.45960211  0.45034555  1
