###############################################################################################
#
# CIF file generated by modified CIFWriter class 
# in pymatgen (v2025.03.10) https://pymatgen.org/
#
###############################################################################################
data_PBE+MBD_tight_cdf844007295e42
_symmetry_space_group_name_H-M   P-3
_cell_length_a   15.83793231
_cell_length_b   15.83793231
_cell_length_c   10.68514211
_cell_angle_alpha   90.00000000
_cell_angle_beta   90.00000000
_cell_angle_gamma   120.00000000
_symmetry_Int_Tables_number   147
_chemical_formula_moiety   'C4 H8 N8 O8'
_chemical_formula_sum   'H48 C24 N48 O48'
_cell_volume   2321.17507917
_cell_formula_units_Z   6
loop_
 _symmetry_equiv_pos_site_id
 _symmetry_equiv_pos_as_xyz
  1  'x, y, z'
  2  '-x, -y, -z'
  3  '-y, x-y, z'
  4  'y, -x+y, -z'
  5  '-x+y, -x, z'
  6  'x-y, x, -z'
loop_
 _atom_site_type_symbol
 _atom_site_label
 _atom_site_symmetry_multiplicity
 _atom_site_fract_x
 _atom_site_fract_y
 _atom_site_fract_z
 _atom_site_occupancy
  H  H0  6  -0.17698867  0.30324980  0.55794066  1
  H  H1  6  -0.17356627  0.30679064  0.94250634  1
  H  H2  6  -0.03795570  0.15250375  0.55741226  1
  H  H3  6  -0.03618088  0.15442989  0.94350805  1
  H  H4  6  0.10503567  0.25654136  0.36355318  1
  H  H5  6  0.10650601  0.25693979  0.13380096  1
  H  H6  6  0.18734200  0.41784972  0.36703518  1
  H  H7  6  0.18945571  0.41850621  0.12911837  1
  C  C8  6  -0.16743681  0.26151183  0.63244620  1
  C  C9  6  -0.16573055  0.26346609  0.86868145  1
  C  C10  6  -0.07619244  0.16586273  0.63286551  1
  C  C11  6  -0.07500342  0.16721109  0.86827670  1
  N  N12  6  -0.17824420  0.38918560  0.74933556  1
  N  N13  6  -0.16167821  0.31032189  0.75003843  1
  N  N14  6  -0.08185195  0.25283343  0.60801876  1
  N  N15  6  -0.08006158  0.25467910  0.89191979  1
  N  N16  6  -0.02753183  0.17013946  0.75031872  1
  N  N17  6  0.00115046  0.33457802  0.56268703  1
  N  N18  6  0.00395971  0.33706482  0.93382820  1
  N  N19  6  0.05110051  0.15449902  0.74999020  1
  O  O20  6  -0.18543261  0.42019146  0.64669695  1
  O  O21  6  -0.18444881  0.42158595  0.85145054  1
  O  O22  6  -0.00440838  0.40780810  0.54373305  1
  O  O23  6  -0.00065572  0.41107966  0.95027951  1
  O  O24  6  0.06438591  0.91622325  0.85212677  1
  O  O25  6  0.06448935  0.91701174  0.64760401  1
  O  O26  6  0.07348282  0.32536383  0.54598490  1
  O  O27  6  0.07611147  0.32751833  0.95036996  1
