###############################################################################################
#
# CIF file generated by modified CIFWriter class 
# in pymatgen (v2025.03.10) https://pymatgen.org/
#
###############################################################################################
data_PBE+MBD_tight_ce6c4e0493d935b
_symmetry_space_group_name_H-M   P3_221
_cell_length_a   7.59544542
_cell_length_b   7.59544542
_cell_length_c   37.69554992
_cell_angle_alpha   90.00000000
_cell_angle_beta   90.00000000
_cell_angle_gamma   120.00000000
_symmetry_Int_Tables_number   154
_chemical_formula_moiety   'C4 H8 N8 O8'
_chemical_formula_sum   'H48 C24 N48 O48'
_cell_volume   1883.33340580
_cell_formula_units_Z   6
loop_
 _symmetry_equiv_pos_site_id
 _symmetry_equiv_pos_as_xyz
  1  'x, y, z'
  2  '-y, x-y, z+2/3'
  3  '-x+y, -x, z+1/3'
  4  'y, x, -z'
  5  'x-y, -y, -z+1/3'
  6  '-x, -x+y, -z+2/3'
loop_
 _atom_site_type_symbol
 _atom_site_label
 _atom_site_symmetry_multiplicity
 _atom_site_fract_x
 _atom_site_fract_y
 _atom_site_fract_z
 _atom_site_occupancy
  H  H0  6  -0.05998903  0.07456828  0.53724002  1
  H  H1  6  -0.02520782  0.15535597  0.64584540  1
  H  H2  6  0.02480717  0.80903819  0.88853443  1
  H  H3  6  0.05859789  0.78805864  0.95597459  1
  H  H4  6  0.18487818  0.63455466  0.88289903  1
  H  H5  6  0.22071526  0.61851298  0.94955089  1
  H  H6  6  0.24893740  0.52812947  0.29978272  1
  H  H7  6  0.25555283  0.67034129  0.52427827  1
  C  C8  6  0.03682505  0.19428052  0.55593707  1
  C  C9  6  0.05592145  0.24408006  0.62249226  1
  C  C10  6  0.23892715  0.58119487  0.54804045  1
  C  C11  6  0.25352150  0.63054337  0.61445744  1
  N  N12  6  -0.12427356  0.38414241  0.53595859  1
  N  N13  6  -0.09782158  0.45180432  0.63507458  1
  N  N14  6  -0.06662053  -0.21627665  0.40456112  1
  N  N15  6  -0.04903574  0.12679589  0.59118117  1
  N  N16  6  0.05307414  0.38572287  0.54574468  1
  N  N17  6  0.07134832  0.44229129  0.62386673  1
  N  N18  6  0.10960977  0.37494038  0.24040119  1
  N  N19  6  0.24635110  0.69995022  0.57878974  1
  O  O20  6  -0.25417933  0.28894435  0.64044542  1
  O  O21  6  -0.12201234  -0.27774799  0.37413961  1
  O  O22  6  -0.10916886  0.54866318  0.52859110  1
  O  O23  6  -0.07659118  0.62286376  0.63849603  1
  O  O24  6  0.00940382  0.29039787  0.26715319  1
  O  O25  6  0.05464878  0.32147870  0.20967205  1
  O  O26  6  0.12149018  1.29041972  0.90177059  1
  O  O27  6  0.21701937  -0.28120514  0.46433100  1
