###############################################################################################
#
# CIF file generated by modified CIFWriter class 
# in pymatgen (v2025.03.10) https://pymatgen.org/
#
###############################################################################################
data_PBE+MBD_tight_cea0e43c77f510b
_symmetry_space_group_name_H-M   P6
_cell_length_a   19.58417961
_cell_length_b   19.58417961
_cell_length_c   6.38482025
_cell_angle_alpha   90.00000000
_cell_angle_beta   90.00000000
_cell_angle_gamma   120.00000000
_symmetry_Int_Tables_number   168
_chemical_formula_moiety   'C4 H8 N8 O8'
_chemical_formula_sum   'H48 C24 N48 O48'
_cell_volume   2120.75291897
_cell_formula_units_Z   6
loop_
 _symmetry_equiv_pos_site_id
 _symmetry_equiv_pos_as_xyz
  1  'x, y, z'
  2  'x-y, x, z'
  3  '-y, x-y, z'
  4  '-x, -y, z'
  5  '-x+y, -x, z'
  6  'y, -x+y, z'
loop_
 _atom_site_type_symbol
 _atom_site_label
 _atom_site_symmetry_multiplicity
 _atom_site_fract_x
 _atom_site_fract_y
 _atom_site_fract_z
 _atom_site_occupancy
  H  H0  6  0.00001376  0.31219742  -0.02177149  1
  H  H1  6  0.00331180  0.29973228  0.25549308  1
  H  H2  6  0.03042182  0.47534254  0.39403035  1
  H  H3  6  0.04090058  0.39494466  0.47898841  1
  H  H4  6  0.12201984  0.79841890  0.21484961  1
  H  H5  6  0.13368297  0.32071407  0.40756765  1
  H  H6  6  0.17546236  0.42888268  0.60138694  1
  H  H7  6  0.25616048  0.52186358  0.52013914  1
  C  C8  6  0.03648304  0.33476560  0.11871267  1
  C  C9  6  0.06455553  0.44584896  0.37289185  1
  C  C10  6  0.16373977  0.34744221  0.25914188  1
  C  C11  6  0.19938342  0.47182721  0.47251170  1
  N  N12  6  0.05418866  0.41425960  0.16206818  1
  N  N13  6  0.06966956  0.46560328  -0.00417015  1
  N  N14  6  0.10524969  0.32517255  0.09274346  1
  N  N15  6  0.11493902  0.29322921  -0.09306583  1
  N  N16  6  0.14577323  0.50103496  0.42383716  1
  N  N17  6  0.16367220  0.57508713  0.50385666  1
  N  N18  6  0.21024225  0.43165471  0.29603902  1
  N  N19  6  0.21374363  0.73584846  0.13893903  1
  O  O20  6  0.06709975  0.43860329  -0.18036195  1
  O  O21  6  0.07177899  0.28685352  -0.24146410  1
  O  O22  6  0.08493093  0.53263414  0.03850290  1
  O  O23  6  0.10785579  0.83515739  -0.09427184  1
  O  O24  6  0.11398616  0.59536483  0.47892723  1
  O  O25  6  0.17055915  0.72970239  -0.00917219  1
  O  O26  6  0.22777900  0.61382007  0.58891784  1
  O  O27  6  0.25052876  0.70137959  0.16321930  1
