###############################################################################################
#
# CIF file generated by modified CIFWriter class 
# in pymatgen (v2025.03.10) https://pymatgen.org/
#
###############################################################################################
data_PBE+MBD_tight_cf391a8535d5752
_symmetry_space_group_name_H-M   P3_221
_cell_length_a   9.19076566
_cell_length_b   9.19076566
_cell_length_c   29.12503292
_cell_angle_alpha   90.00000000
_cell_angle_beta   90.00000000
_cell_angle_gamma   120.00000000
_symmetry_Int_Tables_number   154
_chemical_formula_moiety   'C4 H8 N8 O8'
_chemical_formula_sum   'H48 C24 N48 O48'
_cell_volume   2130.59273851
_cell_formula_units_Z   6
loop_
 _symmetry_equiv_pos_site_id
 _symmetry_equiv_pos_as_xyz
  1  'x, y, z'
  2  '-y, x-y, z+2/3'
  3  '-x+y, -x, z+1/3'
  4  'y, x, -z'
  5  'x-y, -y, -z+1/3'
  6  '-x, -x+y, -z+2/3'
loop_
 _atom_site_type_symbol
 _atom_site_label
 _atom_site_symmetry_multiplicity
 _atom_site_fract_x
 _atom_site_fract_y
 _atom_site_fract_z
 _atom_site_occupancy
  H  H0  6  -0.02939451  0.30334671  0.59787167  1
  H  H1  6  -0.01006680  0.36771565  0.28488478  1
  H  H2  6  0.10507307  0.63997298  0.70558460  1
  H  H3  6  0.16053597  0.57868239  0.29044702  1
  H  H4  6  0.19160858  0.44388568  0.60422219  1
  H  H5  6  0.20197225  0.67648551  0.51023232  1
  H  H6  6  0.27762032  0.64800774  0.67580252  1
  H  H7  6  0.31776749  0.68200874  0.88611985  1
  C  C8  6  0.06735512  0.43340775  0.60454666  1
  C  C9  6  0.12530934  0.44981853  0.28051977  1
  C  C10  6  0.15422091  0.63747764  0.67161064  1
  C  C11  6  0.22181704  0.67133033  0.54706294  1
  N  N12  6  -0.09827772  0.36085674  0.67536521  1
  N  N13  6  -0.08618418  0.51179771  0.55132305  1
  N  N14  6  0.03133213  0.32933269  0.20373195  1
  N  N15  6  0.03717981  0.47773309  0.65023657  1
  N  N16  6  0.04808261  0.81299253  0.64132477  1
  N  N17  6  0.06858896  0.54356050  0.56879390  1
  N  N18  6  0.16136410  0.44349165  0.23250489  1
  N  N19  6  0.18200162  0.78289493  0.64502383  1
  O  O20  6  -0.21144711  0.40862344  0.57254571  1
  O  O21  6  -0.19378493  0.22480970  0.65717335  1
  O  O22  6  -0.11588126  0.40084688  0.71475495  1
  O  O23  6  -0.11065561  0.25395268  0.22013355  1
  O  O24  6  -0.08352695  0.58916060  0.51667778  1
  O  O25  6  -0.08056561  0.71677835  0.66250454  1
  O  O26  6  0.06865669  0.13872612  0.28371046  1
  O  O27  6  0.06980456  0.31840513  0.16402898  1
