###############################################################################################
#
# CIF file generated by modified CIFWriter class 
# in pymatgen (v2025.03.10) https://pymatgen.org/
#
###############################################################################################
data_PBE+MBD_tight_d1565f1ed8b2682
_symmetry_space_group_name_H-M   P6_4
_cell_length_a   15.97884468
_cell_length_b   15.97884468
_cell_length_c   8.62225069
_cell_angle_alpha   90.00000000
_cell_angle_beta   90.00000000
_cell_angle_gamma   120.00000000
_symmetry_Int_Tables_number   172
_chemical_formula_moiety   'C4 H8 N8 O8'
_chemical_formula_sum   'H48 C24 N48 O48'
_cell_volume   1906.52290881
_cell_formula_units_Z   6
loop_
 _symmetry_equiv_pos_site_id
 _symmetry_equiv_pos_as_xyz
  1  'x, y, z'
  2  'x-y, x, z+2/3'
  3  '-y, x-y, z+1/3'
  4  '-x, -y, z'
  5  '-x+y, -x, z+2/3'
  6  'y, -x+y, z+1/3'
loop_
 _atom_site_type_symbol
 _atom_site_label
 _atom_site_symmetry_multiplicity
 _atom_site_fract_x
 _atom_site_fract_y
 _atom_site_fract_z
 _atom_site_occupancy
  H  H0  6  0.03410374  0.63835143  0.74116936  1
  H  H1  6  0.03789543  0.71623992  0.59015908  1
  H  H2  6  0.06359540  0.69121349  0.98119659  1
  H  H3  6  0.08561355  0.81007362  1.02190100  1
  H  H4  6  0.19142973  0.61843587  0.75491026  1
  H  H5  6  0.21729366  0.67244214  0.98490782  1
  H  H6  6  0.21988214  0.54738195  0.36788929  1
  H  H7  6  0.27611799  0.68024737  0.60425629  1
  C  C8  6  0.08056544  0.70641721  0.67963720  1
  C  C9  6  0.11251499  0.76866736  0.95947437  1
  C  C10  6  0.22830802  0.68605625  0.68843921  1
  C  C11  6  0.24919966  0.51003731  0.30028992  1
  N  N12  6  0.11233441  0.78291121  0.79325609  1
  N  N13  6  0.12291295  0.27060581  0.07244203  1
  N  N14  6  0.13330049  0.38182444  0.46896275  1
  N  N15  6  0.14644059  0.49538327  0.08082500  1
  N  N16  6  0.15912380  0.70104408  0.60245639  1
  N  N17  6  0.16260767  0.70168306  0.44083145  1
  N  N18  6  0.20326480  0.41134966  0.35227168  1
  N  N19  6  0.23810550  0.52189950  0.13461720  1
  O  O20  6  0.05967361  0.23099461  0.17125036  1
  O  O21  6  0.08124627  0.46667720  0.17660388  1
  O  O22  6  0.09702160  0.29801728  0.51301408  1
  O  O23  6  0.10113231  0.71051206  0.37032113  1
  O  O24  6  0.11199806  0.26594252  -0.06926857  1
  O  O25  6  0.11531065  0.44325100  0.51989762  1
  O  O26  6  0.13834106  0.50293168  -0.06109551  1
  O  O27  6  0.22746226  0.69163611  0.38024991  1
