###############################################################################################
#
# CIF file generated by modified CIFWriter class 
# in pymatgen (v2025.03.10) https://pymatgen.org/
#
###############################################################################################
data_PBE+MBD_tight_d3addcc2c33be0a
_symmetry_space_group_name_H-M   P-3
_cell_length_a   17.09737507
_cell_length_b   17.09737507
_cell_length_c   8.18868195
_cell_angle_alpha   90.00000000
_cell_angle_beta   90.00000000
_cell_angle_gamma   120.00000000
_symmetry_Int_Tables_number   147
_chemical_formula_moiety   'C4 H8 N8 O8'
_chemical_formula_sum   'H48 C24 N48 O48'
_cell_volume   2073.02009945
_cell_formula_units_Z   6
loop_
 _symmetry_equiv_pos_site_id
 _symmetry_equiv_pos_as_xyz
  1  'x, y, z'
  2  '-x, -y, -z'
  3  '-y, x-y, z'
  4  'y, -x+y, -z'
  5  '-x+y, -x, z'
  6  'x-y, x, -z'
loop_
 _atom_site_type_symbol
 _atom_site_label
 _atom_site_symmetry_multiplicity
 _atom_site_fract_x
 _atom_site_fract_y
 _atom_site_fract_z
 _atom_site_occupancy
  H  H0  6  -0.04351705  0.72039344  0.72704177  1
  H  H1  6  -0.02593092  0.63643792  0.55440498  1
  H  H2  6  -0.00222254  0.62405644  0.93365038  1
  H  H3  6  0.03255556  0.83948053  0.73858137  1
  H  H4  6  0.03304538  0.54694592  0.76374754  1
  H  H5  6  0.05190696  0.69218000  0.39138832  1
  H  H6  6  0.08416907  0.69283224  1.07715689  1
  H  H7  6  0.14817387  0.57789760  0.72507874  1
  C  C8  6  0.02727208  0.77314041  0.74377630  1
  C  C9  6  0.04577768  0.67952618  0.52275879  1
  C  C10  6  0.06385549  0.68555868  0.94890372  1
  C  C11  6  0.10001146  0.60237662  0.72724412  1
  N  N12  6  0.05730089  0.76375545  0.90456535  1
  N  N13  6  0.07782930  0.76311157  0.61077732  1
  N  N14  6  0.09110904  0.83694525  1.01360406  1
  N  N15  6  0.09629829  0.63320172  0.56068468  1
  N  N16  6  0.10755988  0.58606570  0.43430406  1
  N  N17  6  0.12705932  0.67261473  0.84758576  1
  N  N18  6  0.15621538  0.83818828  0.55620457  1
  N  N19  6  0.21899521  0.73633869  0.86013094  1
  O  O20  6  0.08911510  0.26711061  0.62298562  1
  O  O21  6  0.09152450  0.19294675  0.96153418  1
  O  O22  6  0.09370840  0.60247396  0.29329348  1
  O  O23  6  0.10505495  0.82188354  1.15434615  1
  O  O24  6  0.12967786  0.52980253  0.47078485  1
  O  O25  6  0.17465083  0.37245150  0.44645494  1
  O  O26  6  0.20406515  0.44375245  0.96338014  1
  O  O27  6  0.27020356  0.72786618  0.76628030  1
