###############################################################################################
#
# CIF file generated by modified CIFWriter class 
# in pymatgen (v2025.03.10) https://pymatgen.org/
#
###############################################################################################
data_PBE+MBD_tight_d45c0a650a36289
_symmetry_space_group_name_H-M   P3_121
_cell_length_a   7.61482985
_cell_length_b   7.61482985
_cell_length_c   44.09912257
_cell_angle_alpha   90.00000000
_cell_angle_beta   90.00000000
_cell_angle_gamma   120.00000000
_symmetry_Int_Tables_number   152
_chemical_formula_moiety   'C4 H8 N8 O8'
_chemical_formula_sum   'H48 C24 N48 O48'
_cell_volume   2214.52704291
_cell_formula_units_Z   6
loop_
 _symmetry_equiv_pos_site_id
 _symmetry_equiv_pos_as_xyz
  1  'x, y, z'
  2  '-y, x-y, z+1/3'
  3  '-x+y, -x, z+2/3'
  4  'y, x, -z'
  5  'x-y, -y, -z+2/3'
  6  '-x, -x+y, -z+1/3'
loop_
 _atom_site_type_symbol
 _atom_site_label
 _atom_site_symmetry_multiplicity
 _atom_site_fract_x
 _atom_site_fract_y
 _atom_site_fract_z
 _atom_site_occupancy
  H  H0  6  -0.19530370  0.50958011  0.89040249  1
  H  H1  6  -0.11079189  0.37037937  0.86757067  1
  H  H2  6  -0.05821378  0.48735952  0.54867247  1
  H  H3  6  0.01384518  0.16301697  0.89846103  1
  H  H4  6  0.05071958  0.22049113  0.93800715  1
  H  H5  6  0.05091210  0.73539382  0.53302095  1
  H  H6  6  0.14453411  0.54068838  0.83861896  1
  H  H7  6  0.18954130  0.49336020  0.17560697  1
  C  C8  6  -0.07386933  0.47475923  0.88694577  1
  C  C9  6  0.06540559  0.28517403  0.91538510  1
  C  C10  6  0.08245433  0.63192649  0.54613653  1
  C  C11  6  0.24060317  0.66523544  0.85416350  1
  N  N12  6  -0.22467139  0.30786020  0.93509467  1
  N  N13  6  -0.05887591  0.38151099  0.91455252  1
  N  N14  6  0.11145625  0.66026259  0.87861251  1
  N  N15  6  0.13654370  0.84346919  0.89005968  1
  N  N16  6  0.15342197  0.72497647  0.57542463  1
  N  N17  6  0.17117257  0.60673457  0.59860275  1
  N  N18  6  0.19464521  0.39526565  0.53024554  1
  N  N19  6  0.22471257  0.59303317  0.52894902  1
  O  O20  6  -0.00061240  0.26070656  0.21046720  1
  O  O21  6  0.01698214  0.25697516  0.52846839  1
  O  O22  6  0.03044545  0.65596293  0.19789065  1
  O  O23  6  0.03107248  0.83001478  0.91178489  1
  O  O24  6  0.13519971  0.43671359  0.59081872  1
  O  O25  6  0.21236376  -0.21888048  0.04315286  1
  O  O26  6  0.22254028  0.68513162  0.62350236  1
  O  O27  6  0.29344792  0.65172437  0.73758251  1
