###############################################################################################
#
# CIF file generated by modified CIFWriter class 
# in pymatgen (v2025.03.10) https://pymatgen.org/
#
###############################################################################################
data_PBE+MBD_tight_d5021cdf1bf7e3
_symmetry_space_group_name_H-M   P3_221
_cell_length_a   11.28100870
_cell_length_b   11.28100870
_cell_length_c   16.16927653
_cell_angle_alpha   90.00000000
_cell_angle_beta   90.00000000
_cell_angle_gamma   120.00000000
_symmetry_Int_Tables_number   154
_chemical_formula_moiety   'C4 H8 N8 O8'
_chemical_formula_sum   'H48 C24 N48 O48'
_cell_volume   1782.03852360
_cell_formula_units_Z   6
loop_
 _symmetry_equiv_pos_site_id
 _symmetry_equiv_pos_as_xyz
  1  'x, y, z'
  2  '-y, x-y, z+2/3'
  3  '-x+y, -x, z+1/3'
  4  'y, x, -z'
  5  'x-y, -y, -z+1/3'
  6  '-x, -x+y, -z+2/3'
loop_
 _atom_site_type_symbol
 _atom_site_label
 _atom_site_symmetry_multiplicity
 _atom_site_fract_x
 _atom_site_fract_y
 _atom_site_fract_z
 _atom_site_occupancy
  H  H0  6  -0.04285021  0.78726218  0.45439340  1
  H  H1  6  0.01516384  0.45399562  0.45803812  1
  H  H2  6  0.09289714  0.26665664  0.32800449  1
  H  H3  6  0.11734243  0.52112584  0.69562949  1
  H  H4  6  0.13130331  0.82514955  0.45960295  1
  H  H5  6  0.15101230  0.38819687  0.24490654  1
  H  H6  6  0.16154310  0.61358196  0.48429587  1
  H  H7  6  0.23361996  0.61719139  0.61426349  1
  C  C8  6  0.02728375  0.75978563  0.48380809  1
  C  C9  6  0.05071953  0.54798281  0.49355375  1
  C  C10  6  0.13505653  0.58982235  0.64346873  1
  C  C11  6  0.15216151  0.82062023  0.62156793  1
  N  N12  6  -0.11187742  0.55976320  0.39745124  1
  N  N13  6  -0.10372342  0.43517775  0.60872249  1
  N  N14  6  -0.08747256  0.76028058  0.61208248  1
  N  N15  6  -0.01989231  0.61703342  0.46254901  1
  N  N16  6  0.03011879  0.51953647  0.58175589  1
  N  N17  6  0.03185739  0.78284279  0.57165678  1
  N  N18  6  0.13788847  0.71229023  0.67604448  1
  N  N19  6  0.16785494  0.74308099  0.75967738  1
  O  O20  6  -0.18701159  0.36359807  0.55505521  1
  O  O21  6  -0.15307987  0.63121707  0.36540097  1
  O  O22  6  -0.14314429  0.44289125  0.37539140  1
  O  O23  6  -0.12698494  0.44070200  0.68211718  1
  O  O24  6  -0.07485542  0.79515822  0.68500876  1
  O  O25  6  0.09944699  0.29261322  0.76249425  1
  O  O26  6  0.14340880  0.33369263  0.45020477  1
  O  O27  6  0.17124954  0.65578406  0.80320031  1
