###############################################################################################
#
# CIF file generated by modified CIFWriter class 
# in pymatgen (v2025.03.10) https://pymatgen.org/
#
###############################################################################################
data_PBE+MBD_tight_d5e8a16be50a9bc
_symmetry_space_group_name_H-M   P3_212
_cell_length_a   6.92108413
_cell_length_b   6.92108413
_cell_length_c   44.53159598
_cell_angle_alpha   90.00000000
_cell_angle_beta   90.00000000
_cell_angle_gamma   120.00000000
_symmetry_Int_Tables_number   153
_chemical_formula_moiety   'C4 H8 N8 O8'
_chemical_formula_sum   'H48 C24 N48 O48'
_cell_volume   1847.34134016
_cell_formula_units_Z   6
loop_
 _symmetry_equiv_pos_site_id
 _symmetry_equiv_pos_as_xyz
  1  'x, y, z'
  2  '-y, x-y, z+2/3'
  3  '-x+y, -x, z+1/3'
  4  '-y, -x, -z+1/3'
  5  '-x+y, y, -z+2/3'
  6  'x, x-y, -z'
loop_
 _atom_site_type_symbol
 _atom_site_label
 _atom_site_symmetry_multiplicity
 _atom_site_fract_x
 _atom_site_fract_y
 _atom_site_fract_z
 _atom_site_occupancy
  H  H0  6  -0.63615287  -1.29948631  0.19177478  1
  H  H1  6  -0.61234320  1.84113360  0.59776908  1
  H  H2  6  -0.56681966  -1.29898519  0.36815589  1
  H  H3  6  -0.54640198  -1.43729311  0.22719077  1
  H  H4  6  -0.45054651  -1.02804934  0.17660391  1
  H  H5  6  -0.36253598  1.94709913  0.56171862  1
  H  H6  6  -0.26787307  -1.29794414  0.24090950  1
  H  H7  6  -0.11679939  -1.04090971  0.43228535  1
  C  C8  6  -0.59072945  1.70713797  0.60757747  1
  C  C9  6  -0.53856299  1.58157658  0.80320406  1
  C  C10  6  -0.41957766  1.86823464  0.76097643  1
  C  C11  6  -0.29852684  -1.13083113  0.43418004  1
  N  N12  6  -0.49197480  1.78762401  0.73107610  1
  N  N13  6  -0.39423821  1.72021424  0.59375301  1
  N  N14  6  -0.38169499  1.71722080  0.78008855  1
  N  N15  6  -0.36649043  1.92226098  0.70669677  1
  N  N16  6  -0.35235839  1.68503717  0.53964766  1
  N  N17  6  -0.28706400  -0.91045700  0.39091831  1
  N  N18  6  -0.22287849  -0.88471499  0.22837011  1
  N  N19  6  -0.18174737  -0.88703426  0.47885248  1
  O  O20  6  -0.44638036  1.85984328  0.68174719  1
  O  O21  6  -0.36458301  -0.90192078  0.36667841  1
  O  O22  6  -0.23493195  -0.84850930  0.50361572  1
  O  O23  6  -0.21182161  -0.73014682  0.21318329  1
  O  O24  6  -0.18932511  -1.28016416  0.28716867  1
  O  O25  6  -0.12543980  -0.75743558  0.40391801  1
  O  O26  6  -0.10756123  -0.86653750  0.25036658  1
  O  O27  6  0.01146184  1.81621657  0.53044679  1
