###############################################################################################
#
# CIF file generated by modified CIFWriter class 
# in pymatgen (v2025.03.10) https://pymatgen.org/
#
###############################################################################################
data_PBE+MBD_tight_d70fcd772935e9c
_symmetry_space_group_name_H-M   P31c
_cell_length_a   12.63055012
_cell_length_b   12.63055012
_cell_length_c   15.02746749
_cell_angle_alpha   90.00000000
_cell_angle_beta   90.00000000
_cell_angle_gamma   120.00000000
_symmetry_Int_Tables_number   159
_chemical_formula_moiety   'C4 H8 N8 O8'
_chemical_formula_sum   'H48 C24 N48 O48'
_cell_volume   2076.16068167
_cell_formula_units_Z   6
loop_
 _symmetry_equiv_pos_site_id
 _symmetry_equiv_pos_as_xyz
  1  'x, y, z'
  2  '-y, x-y, z'
  3  '-x+y, -x, z'
  4  'y, x, z+1/2'
  5  'x-y, -y, z+1/2'
  6  '-x, -x+y, z+1/2'
loop_
 _atom_site_type_symbol
 _atom_site_label
 _atom_site_symmetry_multiplicity
 _atom_site_fract_x
 _atom_site_fract_y
 _atom_site_fract_z
 _atom_site_occupancy
  H  H0  6  -0.03043475  0.54575644  0.20874291  1
  H  H1  6  -0.01968259  0.52189760  0.48207287  1
  H  H2  6  0.08624867  0.30819612  0.18581402  1
  H  H3  6  0.09234854  0.28105967  0.45693781  1
  H  H4  6  0.11299770  0.57902575  0.25666631  1
  H  H5  6  0.11905371  0.56370482  0.42343346  1
  H  H6  6  0.17364849  0.44685745  0.24767432  1
  H  H7  6  0.17928468  0.43029326  0.40857173  1
  C  C8  6  0.01371443  0.51520098  0.25683976  1
  C  C9  6  0.01980766  0.49998609  0.42513615  1
  C  C10  6  0.08469400  0.36097390  0.24300618  1
  C  C11  6  0.08967107  0.34469234  0.40887476  1
  N  N12  6  -0.15100249  0.50380661  0.35014561  1
  N  N13  6  -0.09242920  0.33518986  0.16010102  1
  N  N14  6  -0.08325495  0.30194109  0.50355714  1
  N  N15  6  -0.03143068  0.51953750  0.34457566  1
  N  N16  6  -0.00724874  0.39590348  0.22945254  1
  N  N17  6  0.00005422  0.37723606  0.43698498  1
  N  N18  6  0.06518298  0.28638028  0.32184467  1
  N  N19  6  0.09322362  0.89585843  0.31230395  1
  O  O20  6  -0.19668892  0.51123061  0.28033687  1
  O  O21  6  -0.19517674  0.48863850  0.42451527  1
  O  O22  6  -0.14621888  0.38545265  0.12978791  1
  O  O23  6  -0.12886100  0.34816220  0.55066004  1
  O  O24  6  -0.10456295  0.23681803  0.13655421  1
  O  O25  6  -0.10163397  0.19753384  0.50801693  1
  O  O26  6  0.03455502  0.87609900  0.38114533  1
  O  O27  6  0.05526272  0.88771264  0.23640912  1
