###############################################################################################
#
# CIF file generated by modified CIFWriter class 
# in pymatgen (v2025.03.10) https://pymatgen.org/
#
###############################################################################################
data_PBE+MBD_tight_d96e5ada2beee31
_symmetry_space_group_name_H-M   P-3
_cell_length_a   12.95881800
_cell_length_b   12.95881800
_cell_length_c   13.86441978
_cell_angle_alpha   90.00000000
_cell_angle_beta   90.00000000
_cell_angle_gamma   120.00000000
_symmetry_Int_Tables_number   147
_chemical_formula_moiety   'C4 H8 N8 O8'
_chemical_formula_sum   'H48 C24 N48 O48'
_cell_volume   2016.33696369
_cell_formula_units_Z   6
loop_
 _symmetry_equiv_pos_site_id
 _symmetry_equiv_pos_as_xyz
  1  'x, y, z'
  2  '-x, -y, -z'
  3  '-y, x-y, z'
  4  'y, -x+y, -z'
  5  '-x+y, -x, z'
  6  'x-y, x, -z'
loop_
 _atom_site_type_symbol
 _atom_site_label
 _atom_site_symmetry_multiplicity
 _atom_site_fract_x
 _atom_site_fract_y
 _atom_site_fract_z
 _atom_site_occupancy
  H  H0  6  -0.24655164  0.28083378  0.25338929  1
  H  H1  6  -0.07513899  0.14154872  0.28532412  1
  H  H2  6  -0.04808779  0.18992285  0.40758556  1
  H  H3  6  0.00086166  0.40297864  0.04827379  1
  H  H4  6  0.01072093  0.27573976  0.08152689  1
  H  H5  6  0.14727316  0.38913694  0.76450190  1
  H  H6  6  0.15099581  0.83890946  0.17396993  1
  H  H7  6  0.20964094  0.76746334  0.24662986  1
  C  C8  6  -0.18778429  0.24518867  0.23736977  1
  C  C9  6  -0.03675993  0.22047361  0.33265210  1
  C  C10  6  -0.00986764  0.34333357  0.10828934  1
  C  C11  6  0.14599008  0.36592765  0.22742040  1
  N  N12  6  -0.21600497  0.24023331  0.06651672  1
  N  N13  6  -0.13541084  0.28712359  0.13964942  1
  N  N14  6  -0.10190122  0.35857253  0.38637875  1
  N  N15  6  -0.10088775  0.28212331  0.31257309  1
  N  N16  6  0.07310495  0.40695754  0.18365996  1
  N  N17  6  0.09229265  0.83812184  0.35720389  1
  N  N18  6  0.09245544  0.29623565  0.31635205  1
  N  N19  6  0.09625734  0.52278818  0.20479539  1
  O  O20  6  -0.17583338  0.24661189  -0.01615275  1
  O  O21  6  -0.15666538  0.41074905  0.36875326  1
  O  O22  6  -0.04593972  0.36501862  0.45905685  1
  O  O23  6  0.03152834  0.73627914  0.32384318  1
  O  O24  6  0.03984867  0.55794936  0.15762510  1
  O  O25  6  0.06157885  0.88209815  0.42176805  1
  O  O26  6  0.16901601  0.57624858  0.26875706  1
  O  O27  6  0.19385054  0.51628690  0.91202751  1
