###############################################################################################
#
# CIF file generated by modified CIFWriter class 
# in pymatgen (v2025.03.10) https://pymatgen.org/
#
###############################################################################################
data_PBE+MBD_tight_dd2467a778eedb3
_symmetry_space_group_name_H-M   P3_121
_cell_length_a   12.15250444
_cell_length_b   12.15250444
_cell_length_c   13.55123612
_cell_angle_alpha   90.00000000
_cell_angle_beta   90.00000000
_cell_angle_gamma   120.00000000
_symmetry_Int_Tables_number   152
_chemical_formula_moiety   'C4 H8 N8 O8'
_chemical_formula_sum   'H48 C24 N48 O48'
_cell_volume   1733.16983201
_cell_formula_units_Z   6
loop_
 _symmetry_equiv_pos_site_id
 _symmetry_equiv_pos_as_xyz
  1  'x, y, z'
  2  '-y, x-y, z+1/3'
  3  '-x+y, -x, z+2/3'
  4  'y, x, -z'
  5  'x-y, -y, -z+2/3'
  6  '-x, -x+y, -z+1/3'
loop_
 _atom_site_type_symbol
 _atom_site_label
 _atom_site_symmetry_multiplicity
 _atom_site_fract_x
 _atom_site_fract_y
 _atom_site_fract_z
 _atom_site_occupancy
  H  H0  6  -0.17253128  0.31198492  0.52101663  1
  H  H1  6  -0.07549555  0.25641365  0.57356563  1
  H  H2  6  -0.06424628  0.11467320  0.35927036  1
  H  H3  6  -0.02414562  0.14110364  0.48719080  1
  H  H4  6  0.08915604  0.69078718  0.05823414  1
  H  H5  6  0.10726565  0.76289870  0.17706241  1
  H  H6  6  0.17535020  0.44942112  0.59382942  1
  H  H7  6  0.20040592  0.59781195  0.54949063  1
  C  C8  6  -0.07920882  0.31935943  0.51701453  1
  C  C9  6  -0.01211369  0.18739210  0.41505736  1
  C  C10  6  0.14405376  0.77790976  0.10116568  1
  C  C11  6  0.15041627  0.49559636  0.53520905  1
  N  N12  6  -0.09706753  0.30767322  0.33583969  1
  N  N13  6  -0.06297997  0.27092789  0.42352724  1
  N  N14  6  -0.02642608  0.53984067  0.54994953  1
  N  N15  6  0.01530520  0.45095471  0.53678448  1
  N  N16  6  0.03168396  0.84044192  -0.01466721  1
  N  N17  6  0.12221662  0.25208031  0.38516988  1
  N  N18  6  0.19399461  0.46765307  0.44382655  1
  N  N19  6  0.20273620  0.53795833  0.35977077  1
  O  O20  6  -0.14112920  0.49605228  0.55768380  1
  O  O21  6  -0.13789002  0.38168124  0.34577827  1
  O  O22  6  -0.08093193  0.26492126  0.25925953  1
  O  O23  6  -0.04895379  0.72552873  -0.01688390  1
  O  O24  6  0.02825454  0.92248727  -0.06569703  1
  O  O25  6  0.05590929  0.65212898  0.55687629  1
  O  O26  6  0.18830002  0.63044822  0.37284568  1
  O  O27  6  0.22152215  0.50043326  0.28132878  1
