###############################################################################################
#
# CIF file generated by modified CIFWriter class 
# in pymatgen (v2025.03.10) https://pymatgen.org/
#
###############################################################################################
data_PBE+MBD_tight_e2de3046001176c
_symmetry_space_group_name_H-M   P6_5
_cell_length_a   7.78576093
_cell_length_b   7.78576093
_cell_length_c   34.41726942
_cell_angle_alpha   90.00000000
_cell_angle_beta   90.00000000
_cell_angle_gamma   120.00000000
_symmetry_Int_Tables_number   170
_chemical_formula_moiety   'C4 H8 N8 O8'
_chemical_formula_sum   'H48 C24 N48 O48'
_cell_volume   1806.79621337
_cell_formula_units_Z   6
loop_
 _symmetry_equiv_pos_site_id
 _symmetry_equiv_pos_as_xyz
  1  'x, y, z'
  2  'x-y, x, z+5/6'
  3  '-y, x-y, z+2/3'
  4  '-x, -y, z+1/2'
  5  '-x+y, -x, z+1/3'
  6  'y, -x+y, z+1/6'
loop_
 _atom_site_type_symbol
 _atom_site_label
 _atom_site_symmetry_multiplicity
 _atom_site_fract_x
 _atom_site_fract_y
 _atom_site_fract_z
 _atom_site_occupancy
  H  H0  6  -0.14772497  0.22030324  0.89285649  1
  H  H1  6  -0.11909881  0.29201778  0.94268728  1
  H  H2  6  0.03113499  0.70547120  0.98726327  1
  H  H3  6  0.03953908  0.19974608  0.63922376  1
  H  H4  6  0.05030291  -0.36071471  0.75822963  1
  H  H5  6  0.18168221  0.49489579  0.96393262  1
  H  H6  6  0.23173181  0.61469667  0.26432053  1
  H  H7  6  0.23203181  -0.26239653  0.79608197  1
  C  C8  6  -0.10448832  0.34506895  0.91263244  1
  C  C9  6  0.09892091  0.80743316  0.96265457  1
  C  C10  6  0.19484712  -0.23763234  0.76659778  1
  C  C11  6  0.23908199  0.59354603  0.93860361  1
  N  N12  6  -0.23497746  0.42536373  0.90613376  1
  N  N13  6  -0.05612231  0.75740736  0.93415458  1
  N  N14  6  -0.03058823  0.89902201  0.90637529  1
  N  N15  6  0.05236780  0.50787068  0.61725438  1
  N  N16  6  0.10199546  0.49484426  0.90698755  1
  N  N17  6  0.16028631  0.56751617  0.86968303  1
  N  N18  6  0.21321636  0.47681824  0.61473497  1
  N  N19  6  0.27895049  -0.38948814  0.71315693  1
  O  O20  6  -0.10996511  0.36379628  0.62498741  1
  O  O21  6  -0.00231471  -0.15701872  0.71407849  1
  O  O22  6  0.03769937  0.48182836  0.84364829  1
  O  O23  6  0.05160976  0.11650700  0.74336041  1
  O  O24  6  0.08494559  0.67802755  0.61163174  1
  O  O25  6  0.09995856  -0.50005749  0.70857067  1
  O  O26  6  0.18496254  0.58910147  0.02948768  1
  O  O27  6  0.28697822  0.61409701  0.53247381  1
