###############################################################################################
#
# CIF file generated by modified CIFWriter class 
# in pymatgen (v2025.03.10) https://pymatgen.org/
#
###############################################################################################
data_PBE+MBD_tight_e350803e5732f42
_symmetry_space_group_name_H-M   P3_221
_cell_length_a   7.61419498
_cell_length_b   7.61419498
_cell_length_c   45.39987986
_cell_angle_alpha   90.00000000
_cell_angle_beta   90.00000000
_cell_angle_gamma   120.00000000
_symmetry_Int_Tables_number   154
_chemical_formula_moiety   'C4 H8 N8 O8'
_chemical_formula_sum   'H48 C24 N48 O48'
_cell_volume   2279.46707302
_cell_formula_units_Z   6
loop_
 _symmetry_equiv_pos_site_id
 _symmetry_equiv_pos_as_xyz
  1  'x, y, z'
  2  '-y, x-y, z+2/3'
  3  '-x+y, -x, z+1/3'
  4  'y, x, -z'
  5  'x-y, -y, -z+1/3'
  6  '-x, -x+y, -z+2/3'
loop_
 _atom_site_type_symbol
 _atom_site_label
 _atom_site_symmetry_multiplicity
 _atom_site_fract_x
 _atom_site_fract_y
 _atom_site_fract_z
 _atom_site_occupancy
  H  H0  6  -0.17503722  0.18777235  0.65820014  1
  H  H1  6  -0.14718053  0.62988112  0.63421287  1
  H  H2  6  -0.06286041  0.45767994  0.66187478  1
  H  H3  6  0.13440717  0.50695002  0.72103597  1
  H  H4  6  0.15265005  0.61217366  0.95222371  1
  H  H5  6  0.16096231  0.78186070  0.56564877  1
  H  H6  6  0.16430153  0.34702864  0.27085051  1
  H  H7  6  0.28265497  0.68171358  0.63459069  1
  C  C8  6  -0.21656304  0.52631170  0.61536506  1
  C  C9  6  -0.09312717  0.33307705  0.64666186  1
  C  C10  6  0.11112690  0.71522291  0.58752070  1
  C  C11  6  0.24848766  0.54648723  0.62170222  1
  N  N12  6  -0.21822518  0.33968240  0.62319858  1
  N  N13  6  -0.10922304  0.62005769  0.58853381  1
  N  N14  6  0.06235513  0.86486465  0.97049806  1
  N  N15  6  0.10548725  0.30814321  0.76482340  1
  N  N16  6  0.10572015  0.36539270  0.63837382  1
  N  N17  6  0.15667711  0.43525427  0.57072388  1
  N  N18  6  0.15767028  -0.37572486  0.38831580  1
  N  N19  6  0.17668835  0.57064926  0.59345915  1
  O  O20  6  -0.10204797  0.78733077  0.54734046  1
  O  O21  6  -0.07632139  0.68729441  0.97214290  1
  O  O22  6  -0.02712521  0.35001661  0.75897025  1
  O  O23  6  -0.01459025  0.02741345  0.63631521  1
  O  O24  6  -0.00077995  -0.40849232  0.37613472  1
  O  O25  6  0.10587147  0.46486653  0.54664965  1
  O  O26  6  0.10882632  0.80967190  0.91132572  1
  O  O27  6  0.17342176  -0.46692745  0.40934259  1
