###############################################################################################
#
# CIF file generated by modified CIFWriter class 
# in pymatgen (v2025.03.10) https://pymatgen.org/
#
###############################################################################################
data_PBE+MBD_tight_e64d1bc702753a1
_symmetry_space_group_name_H-M   P3_121
_cell_length_a   13.60290992
_cell_length_b   13.60290992
_cell_length_c   11.72237804
_cell_angle_alpha   90.00000000
_cell_angle_beta   90.00000000
_cell_angle_gamma   120.00000000
_symmetry_Int_Tables_number   152
_chemical_formula_moiety   'C4 H8 N8 O8'
_chemical_formula_sum   'H48 C24 N48 O48'
_cell_volume   1878.49480725
_cell_formula_units_Z   6
loop_
 _symmetry_equiv_pos_site_id
 _symmetry_equiv_pos_as_xyz
  1  'x, y, z'
  2  '-y, x-y, z+1/3'
  3  '-x+y, -x, z+2/3'
  4  'y, x, -z'
  5  'x-y, -y, -z+2/3'
  6  '-x, -x+y, -z+1/3'
loop_
 _atom_site_type_symbol
 _atom_site_label
 _atom_site_symmetry_multiplicity
 _atom_site_fract_x
 _atom_site_fract_y
 _atom_site_fract_z
 _atom_site_occupancy
  H  H0  6  -0.06946954  0.23656934  0.54114627  1
  H  H1  6  0.01908622  0.56731073  0.53575943  1
  H  H2  6  0.07412727  0.34454373  0.57556503  1
  H  H3  6  0.12126978  0.52600683  0.57626291  1
  H  H4  6  0.12252695  0.82558192  -0.02880922  1
  H  H5  6  0.15393764  0.77844714  0.10215812  1
  H  H6  6  0.26745957  0.55431437  0.44417432  1
  H  H7  6  0.27751383  0.62689203  0.31448378  1
  C  C8  6  0.00711378  0.31199086  0.51019789  1
  C  C9  6  0.06317015  0.52242568  0.50902451  1
  C  C10  6  0.15872108  0.34780298  0.36624611  1
  C  C11  6  0.21970691  0.55790949  0.37030563  1
  N  N12  6  -0.12863901  0.37440922  0.45847532  1
  N  N13  6  -0.01951264  0.16173211  0.37418940  1
  N  N14  6  -0.01875914  0.40322557  0.49113811  1
  N  N15  6  0.04553742  0.27795061  0.41142684  1
  N  N16  6  0.12894436  0.67539326  0.36780018  1
  N  N17  6  0.13195618  0.58163335  0.40964650  1
  N  N18  6  0.14830860  0.44729207  0.19666535  1
  N  N19  6  0.17439651  0.45061599  0.31170639  1
  O  O20  6  -0.19670731  0.27328527  0.44382466  1
  O  O21  6  -0.14821354  0.45307327  0.44870927  1
  O  O22  6  0.02387166  0.13303934  0.30010884  1
  O  O23  6  0.05212123  0.69078667  0.39984767  1
  O  O24  6  0.10408635  -0.11068793  0.57854398  1
  O  O25  6  0.12211075  0.35960636  0.14475760  1
  O  O26  6  0.15337263  0.53405452  0.15697102  1
  O  O27  6  0.20575104  0.73821875  0.30088364  1
