###############################################################################################
#
# CIF file generated by modified CIFWriter class 
# in pymatgen (v2025.03.10) https://pymatgen.org/
#
###############################################################################################
data_PBE+MBD_tight_ea90a8fd66b829e
_symmetry_space_group_name_H-M   P-3
_cell_length_a   17.06374910
_cell_length_b   17.06374910
_cell_length_c   7.72054249
_cell_angle_alpha   90.00000000
_cell_angle_beta   90.00000000
_cell_angle_gamma   120.00000000
_symmetry_Int_Tables_number   147
_chemical_formula_moiety   'C4 H8 N8 O8'
_chemical_formula_sum   'H48 C24 N48 O48'
_cell_volume   1946.82700782
_cell_formula_units_Z   6
loop_
 _symmetry_equiv_pos_site_id
 _symmetry_equiv_pos_as_xyz
  1  'x, y, z'
  2  '-x, -y, -z'
  3  '-y, x-y, z'
  4  'y, -x+y, -z'
  5  '-x+y, -x, z'
  6  'x-y, x, -z'
loop_
 _atom_site_type_symbol
 _atom_site_label
 _atom_site_symmetry_multiplicity
 _atom_site_fract_x
 _atom_site_fract_y
 _atom_site_fract_z
 _atom_site_occupancy
  H  H0  6  -0.05999125  0.61859441  0.68379845  1
  H  H1  6  -0.03839151  0.69523202  0.50761908  1
  H  H2  6  0.00045266  0.66807894  0.93960882  1
  H  H3  6  0.04621342  0.78585615  0.97888337  1
  H  H4  6  0.05275069  0.55333412  0.69696465  1
  H  H5  6  0.11555782  0.61219115  0.94009092  1
  H  H6  6  0.12390425  0.57823279  0.50997274  1
  H  H7  6  0.23209495  0.69823659  0.95178109  1
  C  C8  6  -0.00710706  0.67301698  0.60484783  1
  C  C9  6  0.05487002  0.73605971  0.90513551  1
  C  C10  6  0.09712152  0.60623061  0.60509524  1
  C  C11  6  0.16649474  0.67988224  0.89486907  1
  N  N12  6  0.03444102  0.62618809  0.33505936  1
  N  N13  6  0.04473494  0.63861109  0.51231112  1
  N  N14  6  0.04757379  0.74661366  0.72043369  1
  N  N15  6  0.09564809  0.83388200  0.65122778  1
  N  N16  6  0.14148089  0.74506168  0.95357090  1
  N  N17  6  0.17027669  0.67511280  0.70746472  1
  N  N18  6  0.18442098  0.38413405  1.06176765  1
  N  N19  6  0.24935701  0.73508926  0.62265390  1
  O  O20  6  -0.01322338  0.65084944  0.26111142  1
  O  O21  6  0.07232267  0.58880709  0.26333114  1
  O  O22  6  0.09499311  0.84002990  0.49258821  1
  O  O23  6  0.10426923  0.23981918  0.75540024  1
  O  O24  6  0.13729580  0.30842651  1.12366165  1
  O  O25  6  0.17542551  0.45049262  1.08975804  1
  O  O26  6  0.21135817  0.52446423  0.71435975  1
  O  O27  6  0.24909881  0.73041884  0.46375365  1
