###############################################################################################
#
# CIF file generated by modified CIFWriter class 
# in pymatgen (v2025.03.10) https://pymatgen.org/
#
###############################################################################################
data_PBE+MBD_tight_ef9b6bfd037fe2e
_symmetry_space_group_name_H-M   P-3
_cell_length_a   12.62277799
_cell_length_b   12.62277799
_cell_length_c   13.72823038
_cell_angle_alpha   90.00000000
_cell_angle_beta   90.00000000
_cell_angle_gamma   120.00000000
_symmetry_Int_Tables_number   147
_chemical_formula_moiety   'C4 H8 N8 O8'
_chemical_formula_sum   'H48 C24 N48 O48'
_cell_volume   1894.32756266
_cell_formula_units_Z   6
loop_
 _symmetry_equiv_pos_site_id
 _symmetry_equiv_pos_as_xyz
  1  'x, y, z'
  2  '-x, -y, -z'
  3  '-y, x-y, z'
  4  'y, -x+y, -z'
  5  '-x+y, -x, z'
  6  'x-y, x, -z'
loop_
 _atom_site_type_symbol
 _atom_site_label
 _atom_site_symmetry_multiplicity
 _atom_site_fract_x
 _atom_site_fract_y
 _atom_site_fract_z
 _atom_site_occupancy
  H  H0  6  -0.13484803  0.37377244  0.21232686  1
  H  H1  6  -0.05672915  0.28611220  0.45320734  1
  H  H2  6  -0.02635885  0.41955519  0.38480684  1
  H  H3  6  0.02478562  0.44564579  0.11695271  1
  H  H4  6  0.05550819  0.34361228  0.04741015  1
  H  H5  6  0.13319861  0.50827003  0.28822586  1
  H  H6  6  0.21585916  0.46456760  0.80610023  1
  H  H7  6  0.21746311  0.75233568  0.30673053  1
  C  C8  6  -0.15574358  0.27847286  0.21906941  1
  C  C9  6  -0.04052637  0.32633377  0.38045495  1
  C  C10  6  0.03940495  0.36683534  0.12047280  1
  C  C11  6  0.15459046  0.43420270  0.28155312  1
  N  N12  6  -0.15100527  0.25042488  0.32216827  1
  N  N13  6  -0.10000228  0.14632837  0.12942763  1
  N  N14  6  -0.06839889  0.26550900  0.16098788  1
  N  N15  6  0.06756140  0.33366453  0.33970959  1
  N  N16  6  0.09967622  0.24629141  0.37076222  1
  N  N17  6  0.14993527  0.40131472  0.17850611  1
  N  N18  6  0.18258963  0.44214102  0.62885500  1
  N  N19  6  0.18338942  0.74161082  0.12937691  1
  O  O20  6  -0.02125729  0.13750348  0.08516209  1
  O  O21  6  0.02112262  0.15816536  0.41463924  1
  O  O22  6  0.06484429  0.26844364  0.84898105  1
  O  O23  6  0.06560167  0.79648342  0.34919295  1
  O  O24  6  0.13340321  0.48832771  0.67761207  1
  O  O25  6  0.13412878  0.64617918  0.17802461  1
  O  O26  6  0.17489784  0.43049554  0.53951352  1
  O  O27  6  0.17572729  0.74584149  0.04006259  1
