###############################################################################################
#
# CIF file generated by modified CIFWriter class 
# in pymatgen (v2025.03.10) https://pymatgen.org/
#
###############################################################################################
data_PBE+MBD_tight_f06ea8fb67bfffa
_symmetry_space_group_name_H-M   P3_212
_cell_length_a   14.75524919
_cell_length_b   14.75524919
_cell_length_c   15.62369147
_cell_angle_alpha   90.00000000
_cell_angle_beta   90.00000000
_cell_angle_gamma   120.00000000
_symmetry_Int_Tables_number   153
_chemical_formula_moiety   'C4 H8 N8 O8'
_chemical_formula_sum   'H48 C24 N48 O48'
_cell_volume   2945.82797614
_cell_formula_units_Z   6
loop_
 _symmetry_equiv_pos_site_id
 _symmetry_equiv_pos_as_xyz
  1  'x, y, z'
  2  '-y, x-y, z+2/3'
  3  '-x+y, -x, z+1/3'
  4  '-y, -x, -z+1/3'
  5  '-x+y, y, -z+2/3'
  6  'x, x-y, -z'
loop_
 _atom_site_type_symbol
 _atom_site_label
 _atom_site_symmetry_multiplicity
 _atom_site_fract_x
 _atom_site_fract_y
 _atom_site_fract_z
 _atom_site_occupancy
  H  H0  6  -0.02455513  0.44818132  0.14650892  1
  H  H1  6  0.03633358  0.80215287  0.73672851  1
  H  H2  6  0.05113563  0.68133985  0.49200113  1
  H  H3  6  0.07811046  0.50386915  0.22439247  1
  H  H4  6  0.12775267  0.75920699  0.71026480  1
  H  H5  6  0.14580063  0.43352807  0.42443714  1
  H  H6  6  0.24023510  0.66552543  0.81196673  1
  H  H7  6  0.26940742  0.60876294  0.07724686  1
  C  C8  6  0.04389944  0.59703436  0.82823462  1
  C  C9  6  0.08298755  0.76935363  0.76223830  1
  C  C10  6  0.13298191  0.73183336  0.51036328  1
  C  C11  6  0.23404093  0.69010563  0.87713575  1
  N  N12  6  -0.09600417  0.28233802  0.23017585  1
  N  N13  6  0.00918945  0.66858420  0.79900108  1
  N  N14  6  0.09224934  0.44480133  0.02255454  1
  N  N15  6  0.10864931  0.87175489  0.45026876  1
  N  N16  6  0.12337234  0.47867542  0.10641372  1
  N  N17  6  0.14605307  0.62593397  0.39446937  1
  N  N18  6  0.15862115  0.83951954  0.51114846  1
  N  N19  6  0.19604228  0.70834116  0.45161086  1
  O  O20  6  -0.15112821  0.32086100  0.21643630  1
  O  O21  6  -0.12189284  0.19869262  0.26561560  1
  O  O22  6  -0.00153083  0.38996073  0.00925608  1
  O  O23  6  0.03816987  0.87284214  0.87623815  1
  O  O24  6  0.05018243  0.57920214  0.39221128  1
  O  O25  6  0.05320923  0.80560878  0.39763742  1
  O  O26  6  0.16386471  0.68969769  1.03036538  1
  O  O27  6  0.20248744  0.59974445  0.64856480  1
