###############################################################################################
#
# CIF file generated by modified CIFWriter class 
# in pymatgen (v2025.03.10) https://pymatgen.org/
#
###############################################################################################
data_PBE+MBD_tight_f79b17aefba91fc
_symmetry_space_group_name_H-M   P6_3/m
_cell_length_a   13.78048679
_cell_length_b   13.78048679
_cell_length_c   11.37862861
_cell_angle_alpha   90.00000000
_cell_angle_beta   90.00000000
_cell_angle_gamma   120.00000000
_symmetry_Int_Tables_number   176
_chemical_formula_moiety   'C4 H8 N8 O8'
_chemical_formula_sum   'H48 C24 N48 O48'
_cell_volume   1871.32695272
_cell_formula_units_Z   6
loop_
 _symmetry_equiv_pos_site_id
 _symmetry_equiv_pos_as_xyz
  1  'x, y, z'
  2  '-x, -y, -z'
  3  'x-y, x, z+1/2'
  4  '-x+y, -x, -z+1/2'
  5  '-y, x-y, z'
  6  'y, -x+y, -z'
  7  '-x, -y, z+1/2'
  8  'x, y, -z+1/2'
  9  '-x+y, -x, z'
  10  'x-y, x, -z'
  11  'y, -x+y, z+1/2'
  12  '-y, x-y, -z+1/2'
loop_
 _atom_site_type_symbol
 _atom_site_label
 _atom_site_symmetry_multiplicity
 _atom_site_fract_x
 _atom_site_fract_y
 _atom_site_fract_z
 _atom_site_occupancy
  H  H0  12  -0.00197455  0.19352770  0.43174576  1
  H  H1  12  0.10961997  0.51853258  0.06753727  1
  H  H2  12  0.12814790  0.28616144  0.13782328  1
  H  H3  12  0.19018221  0.46312023  0.13123189  1
  C  C4  12  0.03753004  0.25450701  0.13888414  1
  C  C5  12  0.11169326  0.46530586  0.13764599  1
  N  N6  12  -0.08452530  0.33116469  0.40205067  1
  N  N7  12  0.02267184  0.35062627  0.12139662  1
  N  N8  6  -0.00882154  0.19784294  0.24997726  1
  N  N9  6  0.08530735  0.17491531  0.75001887  1
  N  N10  6  0.10065920  0.61138885  0.25007583  1
  N  N11  6  0.10790428  0.51455567  0.25004141  1
  O  O12  12  -0.15733483  0.23328870  0.41965903  1
  O  O13  12  -0.09679953  0.41364826  0.40143278  1
  O  O14  12  0.03895073  0.16089144  0.65385183  1
  O  O15  12  0.10032712  0.65294380  0.15418168  1
