###############################################################################################
#
# CIF file generated by modified CIFWriter class 
# in pymatgen (v2025.03.10) https://pymatgen.org/
#
###############################################################################################
data_PBE+MBD_tight_f955a7dfcb3bb37
_symmetry_space_group_name_H-M   P3_121
_cell_length_a   7.59328192
_cell_length_b   7.59328192
_cell_length_c   37.77242147
_cell_angle_alpha   90.00000000
_cell_angle_beta   90.00000000
_cell_angle_gamma   120.00000000
_symmetry_Int_Tables_number   152
_chemical_formula_moiety   'C4 H8 N8 O8'
_chemical_formula_sum   'H48 C24 N48 O48'
_cell_volume   1886.09909885
_cell_formula_units_Z   6
loop_
 _symmetry_equiv_pos_site_id
 _symmetry_equiv_pos_as_xyz
  1  'x, y, z'
  2  '-y, x-y, z+1/3'
  3  '-x+y, -x, z+2/3'
  4  'y, x, -z'
  5  'x-y, -y, -z+2/3'
  6  '-x, -x+y, -z+1/3'
loop_
 _atom_site_type_symbol
 _atom_site_label
 _atom_site_symmetry_multiplicity
 _atom_site_fract_x
 _atom_site_fract_y
 _atom_site_fract_z
 _atom_site_occupancy
  H  H0  6  -0.20819807  0.58272153  0.35255083  1
  H  H1  6  0.02554620  0.25743031  0.71953184  1
  H  H2  6  0.04322220  0.22851346  0.22212156  1
  H  H3  6  0.05663644  0.20247622  0.78624095  1
  H  H4  6  0.08772960  0.18688136  0.28894049  1
  H  H5  6  0.13766084  0.51657531  0.70564762  1
  H  H6  6  0.15261094  0.48474298  0.20674333  1
  H  H7  6  0.17261592  0.42750614  0.81283140  1
  C  C8  6  -0.13029732  0.65534503  0.37713937  1
  C  C9  6  0.15732239  0.41085108  0.72257115  1
  C  C10  6  0.17553818  0.38235346  0.22400908  1
  C  C11  6  0.17697650  0.81700148  0.45466233  1
  N  N12  6  -0.02382845  0.45108933  0.46342733  1
  N  N13  6  -0.01870392  0.63032528  0.45411065  1
  N  N14  6  0.06553621  0.66480361  0.37844470  1
  N  N15  6  0.07106561  0.48916861  0.37058343  1
  N  N16  6  0.14929089  0.64658391  0.76636352  1
  N  N17  6  0.16770678  0.47698790  0.75902549  1
  N  N18  6  0.17712331  0.62723395  0.26686139  1
  N  N19  6  0.19292250  0.45558859  0.26015827  1
  O  O20  6  -0.18994118  0.29368463  0.46092727  1
  O  O21  6  -0.08949910  0.33960008  0.36145545  1
  O  O22  6  0.12338954  0.73306871  0.74095632  1
  O  O23  6  0.13658854  0.46436535  0.47328884  1
  O  O24  6  0.14784806  0.70981759  0.24124816  1
  O  O25  6  0.15793979  0.69657249  0.79755387  1
  O  O26  6  0.19107423  0.68273760  0.29783993  1
  O  O27  6  0.23748107  0.49902836  0.37349625  1
