###############################################################################################
#
# CIF file generated by modified CIFWriter class 
# in pymatgen (v2025.03.10) https://pymatgen.org/
#
###############################################################################################
data_MACE-OFF23(L)_1027c4dc386bbc4
_symmetry_space_group_name_H-M   P-3
_cell_length_a   14.35871250
_cell_length_b   14.35871250
_cell_length_c   9.36805741
_cell_angle_alpha   90.00000000
_cell_angle_beta   90.00000000
_cell_angle_gamma   120.00000000
_symmetry_Int_Tables_number   147
_chemical_formula_moiety   'C4 H8 N8 O8'
_chemical_formula_sum   'H48 C24 N48 O48'
_cell_volume   1672.67349430
_cell_formula_units_Z   6
loop_
 _symmetry_equiv_pos_site_id
 _symmetry_equiv_pos_as_xyz
  1  'x, y, z'
  2  '-x, -y, -z'
  3  '-y, x-y, z'
  4  'y, -x+y, -z'
  5  '-x+y, -x, z'
  6  'x-y, x, -z'
loop_
 _atom_site_type_symbol
 _atom_site_label
 _atom_site_symmetry_multiplicity
 _atom_site_fract_x
 _atom_site_fract_y
 _atom_site_fract_z
 _atom_site_occupancy
  H  H0  6  -0.14613453  0.21165463  0.27458211  1
  H  H1  6  -0.08817963  0.39136522  0.15042388  1
  H  H2  6  -0.08787270  0.13669830  0.21041926  1
  H  H3  6  -0.06321800  0.34623158  0.40995696  1
  H  H4  6  -0.03733882  0.40095164  -0.02408696  1
  H  H5  6  0.01957080  0.32891286  0.53313381  1
  H  H6  6  0.01971047  0.52749105  0.28598299  1
  H  H7  6  0.16068630  0.59515038  0.26696274  1
  C  C8  6  -0.07420153  0.21701206  0.22817642  1
  C  C9  6  -0.02990833  0.38263654  0.08583680  1
  C  C10  6  0.01368924  0.34996081  0.42408464  1
  C  C11  6  0.08939064  0.51688307  0.27447633  1
  N  N12  6  -0.07963889  0.21396339  -0.03119123  1
  N  N13  6  -0.05189294  0.27322019  0.09195250  1
  N  N14  6  0.01463609  0.27355649  0.32534582  1
  N  N15  6  0.07177327  0.22353155  0.36848696  1
  N  N16  6  0.07460327  0.45946094  0.14309106  1
  N  N17  6  0.09972690  0.45963908  0.39670845  1
  N  N18  6  0.15343338  0.52223808  0.51319739  1
  N  N19  6  0.16485643  0.48101830  0.06589154  1
  O  O20  6  -0.11428847  0.11825789  -0.01970326  1
  O  O21  6  -0.06875462  0.26055224  -0.14409687  1
  O  O22  6  0.05364637  0.14152758  0.31121111  1
  O  O23  6  0.13267511  0.86178042  0.46145011  1
  O  O24  6  0.15044265  0.44748708  -0.05596323  1
  O  O25  6  0.15248891  0.47706426  0.62312198  1
  O  O26  6  0.19789536  0.61937050  0.49820764  1
  O  O27  6  0.25098776  0.53110856  0.12476387  1
