###############################################################################################
#
# CIF file generated by modified CIFWriter class 
# in pymatgen (v2025.03.10) https://pymatgen.org/
#
###############################################################################################
data_MACE-OFF23(L)_109fa9b4d8bea23
_symmetry_space_group_name_H-M   P6_2
_cell_length_a   16.34881449
_cell_length_b   16.34881449
_cell_length_c   7.43325644
_cell_angle_alpha   90.00000000
_cell_angle_beta   90.00000000
_cell_angle_gamma   120.00000000
_symmetry_Int_Tables_number   171
_chemical_formula_moiety   'C4 H8 N8 O8'
_chemical_formula_sum   'H48 C24 N48 O48'
_cell_volume   1720.60935367
_cell_formula_units_Z   6
loop_
 _symmetry_equiv_pos_site_id
 _symmetry_equiv_pos_as_xyz
  1  'x, y, z'
  2  'x-y, x, z+1/3'
  3  '-y, x-y, z+2/3'
  4  '-x, -y, z'
  5  '-x+y, -x, z+1/3'
  6  'y, -x+y, z+2/3'
loop_
 _atom_site_type_symbol
 _atom_site_label
 _atom_site_symmetry_multiplicity
 _atom_site_fract_x
 _atom_site_fract_y
 _atom_site_fract_z
 _atom_site_occupancy
  H  H0  6  0.04252298  0.83144514  0.74574890  1
  H  H1  6  0.09447737  0.66779462  1.04406825  1
  H  H2  6  0.10842283  0.40097330  0.30137451  1
  H  H3  6  0.12689651  0.27913237  0.52060636  1
  H  H4  6  0.12908826  0.38831519  0.07317028  1
  H  H5  6  0.18653353  0.78372374  0.99937797  1
  H  H6  6  0.20583664  0.52149943  0.43559654  1
  H  H7  6  0.29035744  0.68625579  0.67057605  1
  C  C8  6  0.10571362  0.82602507  0.75061184  1
  C  C9  6  0.13859269  0.71546654  0.93979366  1
  C  C10  6  0.15258600  0.38860872  0.20906307  1
  C  C11  6  0.25972390  0.72772910  0.71666012  1
  N  N12  6  0.00429675  0.65547007  0.74268041  1
  N  N13  6  0.08375476  0.73227154  0.80783001  1
  N  N14  6  0.11084217  0.87395081  0.43685549  1
  N  N15  6  0.14347387  0.29766653  0.24616877  1
  N  N16  6  0.15239809  0.68145365  0.46670739  1
  N  N17  6  0.19116701  0.67538647  0.85698868  1
  N  N18  6  0.19340579  0.60172522  0.93865965  1
  N  N19  6  0.21847850  0.75236669  0.57068108  1
  O  O20  6  -0.03412767  0.66953643  0.61610588  1
  O  O21  6  -0.01944870  0.57979572  0.81159042  1
  O  O22  6  0.03404351  0.86570064  0.46275134  1
  O  O23  6  0.09987683  0.25497310  -0.03648211  1
  O  O24  6  0.11413777  0.70330634  0.35227814  1
  O  O25  6  0.13515567  0.60183070  0.50125624  1
  O  O26  6  0.14435326  0.56669240  1.07033466  1
  O  O27  6  0.24530427  0.57536965  0.87423454  1
