###############################################################################################
#
# CIF file generated by modified CIFWriter class 
# in pymatgen (v2025.03.10) https://pymatgen.org/
#
###############################################################################################
data_MACE-OFF23(L)_147f155fba7f00e
_symmetry_space_group_name_H-M   P3_121
_cell_length_a   7.57879145
_cell_length_b   7.57879145
_cell_length_c   40.64082440
_cell_angle_alpha   90.00000000
_cell_angle_beta   90.00000000
_cell_angle_gamma   120.00000000
_symmetry_Int_Tables_number   152
_chemical_formula_moiety   'C4 H8 N8 O8'
_chemical_formula_sum   'H48 C24 N48 O48'
_cell_volume   2021.58987630
_cell_formula_units_Z   6
loop_
 _symmetry_equiv_pos_site_id
 _symmetry_equiv_pos_as_xyz
  1  'x, y, z'
  2  '-y, x-y, z+1/3'
  3  '-x+y, -x, z+2/3'
  4  'y, x, -z'
  5  'x-y, -y, -z+2/3'
  6  '-x, -x+y, -z+1/3'
loop_
 _atom_site_type_symbol
 _atom_site_label
 _atom_site_symmetry_multiplicity
 _atom_site_fract_x
 _atom_site_fract_y
 _atom_site_fract_z
 _atom_site_occupancy
  H  H0  6  -0.27042542  0.28793962  0.61432985  1
  H  H1  6  -0.14319108  0.44886176  0.51640507  1
  H  H2  6  -0.02201169  0.09242610  0.87462711  1
  H  H3  6  0.01271494  0.14991514  0.11260272  1
  H  H4  6  0.01810428  0.86462665  0.63906791  1
  H  H5  6  0.04082712  0.23560026  0.05430641  1
  H  H6  6  0.18122696  0.46016020  0.12740217  1
  H  H7  6  0.20060956  0.54376505  0.06959867  1
  C  C8  6  -0.22049543  0.42166021  0.59907026  1
  C  C9  6  -0.14932537  0.51497044  0.53954196  1
  C  C10  6  -0.03981620  0.79342763  0.61547371  1
  C  C11  6  0.02090480  0.88782957  0.55593537  1
  N  N12  6  -0.18913197  0.19318480  0.56004351  1
  N  N13  6  -0.17691085  0.37679422  0.56635005  1
  N  N14  6  -0.05059196  0.59812246  0.61392902  1
  N  N15  6  0.02848173  0.71319637  0.54353219  1
  N  N16  6  0.06815334  0.15521809  0.92320371  1
  N  N17  6  0.08734063  0.56957304  0.63199469  1
  N  N18  6  0.11499167  -0.12454823  0.06833347  1
  N  N19  6  0.21437308  0.73835215  0.53476336  1
  O  O20  6  0.05412810  -0.25250266  0.09007235  1
  O  O21  6  0.07318019  0.40411114  0.63006800  1
  O  O22  6  0.07645686  -0.22891282  0.41691742  1
  O  O23  6  0.09257530  0.45330140  0.87169323  1
  O  O24  6  0.14401165  -0.15255525  0.03999917  1
  O  O25  6  0.15869233  -0.16070299  0.46802792  1
  O  O26  6  0.21147449  0.71352399  0.64805723  1
  O  O27  6  0.21686015  0.58949037  0.52444377  1
