###############################################################################################
#
# CIF file generated by modified CIFWriter class 
# in pymatgen (v2025.03.10) https://pymatgen.org/
#
###############################################################################################
data_MACE-OFF23(L)_187ac946e2806d2
_symmetry_space_group_name_H-M   P6_1
_cell_length_a   8.08931186
_cell_length_b   8.08931186
_cell_length_c   32.87205969
_cell_angle_alpha   90.00000000
_cell_angle_beta   90.00000000
_cell_angle_gamma   120.00000000
_symmetry_Int_Tables_number   169
_chemical_formula_moiety   'C4 H8 N8 O8'
_chemical_formula_sum   'H48 C24 N48 O48'
_cell_volume   1862.86209676
_cell_formula_units_Z   6
loop_
 _symmetry_equiv_pos_site_id
 _symmetry_equiv_pos_as_xyz
  1  'x, y, z'
  2  'x-y, x, z+1/6'
  3  '-y, x-y, z+1/3'
  4  '-x, -y, z+1/2'
  5  '-x+y, -x, z+2/3'
  6  'y, -x+y, z+5/6'
loop_
 _atom_site_type_symbol
 _atom_site_label
 _atom_site_symmetry_multiplicity
 _atom_site_fract_x
 _atom_site_fract_y
 _atom_site_fract_z
 _atom_site_occupancy
  H  H0  6  -0.11332466  0.47040811  0.28300475  1
  H  H1  6  -0.08749446  0.42181807  0.99095232  1
  H  H2  6  -0.01790078  0.42902369  0.32817681  1
  H  H3  6  0.01149952  0.92183883  0.94794485  1
  H  H4  6  0.06428555  0.63590152  1.01708808  1
  H  H5  6  0.09234835  0.21094664  0.32706234  1
  H  H6  6  0.13248364  0.51528109  0.66052671  1
  H  H7  6  0.25099385  0.64466830  0.35187141  1
  C  C8  6  0.00442832  0.46019516  0.29574420  1
  C  C9  6  0.04241587  0.55819615  0.98875954  1
  C  C10  6  0.10572572  0.87827681  0.96125611  1
  C  C11  6  0.28474550  0.60709166  0.65711680  1
  N  N12  6  -0.13703107  0.18609733  0.25021388  1
  N  N13  6  -0.04211028  0.59262813  0.92024756  1
  N  N14  6  0.01413635  0.30594751  0.27534740  1
  N  N15  6  0.02577330  0.67444680  0.95760478  1
  N  N16  6  0.16236496  0.33711879  0.98557602  1
  N  N17  6  0.17822087  0.64123944  0.29245755  1
  N  N18  6  0.20025870  0.52366536  0.98227117  1
  N  N19  6  0.20239249  0.75292686  0.25862205  1
  O  O20  6  -0.09405895  0.42468465  0.91675649  1
  O  O21  6  -0.04305088  0.69646285  0.89371873  1
  O  O22  6  -0.00212020  0.21171760  0.98221839  1
  O  O23  6  0.01555790  0.70245016  0.65817140  1
  O  O24  6  0.04001057  0.18551386  0.07213675  1
  O  O25  6  0.08045767  0.68449850  0.23268435  1
  O  O26  6  0.09018363  0.43461178  0.59142855  1
  O  O27  6  0.23875790  0.48767448  0.07448064  1
