###############################################################################################
#
# CIF file generated by modified CIFWriter class 
# in pymatgen (v2025.03.10) https://pymatgen.org/
#
###############################################################################################
data_MACE-OFF23(L)_1afdcb022052021
_symmetry_space_group_name_H-M   P6_5
_cell_length_a   17.65157742
_cell_length_b   17.65157742
_cell_length_c   6.52435956
_cell_angle_alpha   90.00000000
_cell_angle_beta   90.00000000
_cell_angle_gamma   120.00000000
_symmetry_Int_Tables_number   170
_chemical_formula_moiety   'C4 H8 N8 O8'
_chemical_formula_sum   'H48 C24 N48 O48'
_cell_volume   1760.49810839
_cell_formula_units_Z   6
loop_
 _symmetry_equiv_pos_site_id
 _symmetry_equiv_pos_as_xyz
  1  'x, y, z'
  2  'x-y, x, z+5/6'
  3  '-y, x-y, z+2/3'
  4  '-x, -y, z+1/2'
  5  '-x+y, -x, z+1/3'
  6  'y, -x+y, z+1/6'
loop_
 _atom_site_type_symbol
 _atom_site_label
 _atom_site_symmetry_multiplicity
 _atom_site_fract_x
 _atom_site_fract_y
 _atom_site_fract_z
 _atom_site_occupancy
  H  H0  6  -0.01460549  0.38433533  0.39833912  1
  H  H1  6  0.09913882  0.45264557  0.43426653  1
  H  H2  6  0.11629591  0.57948601  0.03007038  1
  H  H3  6  0.13552762  0.27639251  0.23043455  1
  H  H4  6  0.16821270  0.56030444  0.23775651  1
  H  H5  6  0.18929065  0.80599598  0.66651162  1
  H  H6  6  0.20419782  0.73031072  0.20161011  1
  H  H7  6  0.22355105  0.73215581  0.46785321  1
  C  C8  6  0.04903288  0.40552644  0.33226493  1
  C  C9  6  0.13511071  0.53451346  0.09216132  1
  C  C10  6  0.14053776  0.34007011  0.23285114  1
  C  C11  6  0.22864155  0.47009945  -0.00438460  1
  N  N12  6  -0.00493747  0.41063371  -0.00109654  1
  N  N13  6  -0.00318208  0.25087873  0.38893409  1
  N  N14  6  0.05863027  0.32976054  0.30687436  1
  N  N15  6  0.05967961  0.45082083  0.14065531  1
  N  N16  6  0.10780048  0.33333290  -0.12670674  1
  N  N17  6  0.16173144  0.38033240  0.03231143  1
  N  N18  6  0.19551566  0.52889493  -0.04772879  1
  N  N19  6  0.20664228  0.56414561  -0.24199116  1
  O  O20  6  -0.06776149  0.24811149  0.46523352  1
  O  O21  6  -0.06433821  0.33824157  0.04024968  1
  O  O22  6  0.00343725  0.44962073  -0.16043748  1
  O  O23  6  0.01076801  0.19080554  0.37866450  1
  O  O24  6  0.05293858  0.25850321  -0.09352003  1
  O  O25  6  0.11866861  0.37273082  -0.28634204  1
  O  O26  6  0.16474966  0.59899302  -0.28754869  1
  O  O27  6  0.26002181  0.56025159  -0.35248599  1
