###############################################################################################
#
# CIF file generated by modified CIFWriter class 
# in pymatgen (v2025.03.10) https://pymatgen.org/
#
###############################################################################################
data_MACE-OFF23(L)_1bc04c80190cbe8
_symmetry_space_group_name_H-M   P3_121
_cell_length_a   8.13676305
_cell_length_b   8.13676305
_cell_length_c   31.08586909
_cell_angle_alpha   90.00000000
_cell_angle_beta   90.00000000
_cell_angle_gamma   120.00000000
_symmetry_Int_Tables_number   152
_chemical_formula_moiety   'C4 H8 N8 O8'
_chemical_formula_sum   'H48 C24 N48 O48'
_cell_volume   1782.36638896
_cell_formula_units_Z   6
loop_
 _symmetry_equiv_pos_site_id
 _symmetry_equiv_pos_as_xyz
  1  'x, y, z'
  2  '-y, x-y, z+1/3'
  3  '-x+y, -x, z+2/3'
  4  'y, x, -z'
  5  'x-y, -y, -z+2/3'
  6  '-x, -x+y, -z+1/3'
loop_
 _atom_site_type_symbol
 _atom_site_label
 _atom_site_symmetry_multiplicity
 _atom_site_fract_x
 _atom_site_fract_y
 _atom_site_fract_z
 _atom_site_occupancy
  H  H0  6  -0.21545131  0.52026687  0.90889450  1
  H  H1  6  -0.04078193  0.63729260  0.94908815  1
  H  H2  6  -0.03839172  0.23029316  0.98279992  1
  H  H3  6  0.04250326  0.47473421  0.99208118  1
  H  H4  6  0.10584513  0.43067048  0.20978692  1
  H  H5  6  0.13666472  0.50160453  0.62715825  1
  H  H6  6  0.13987813  0.38648622  0.26372024  1
  H  H7  6  0.30692419  0.63114880  0.30973882  1
  C  C8  6  -0.07871772  0.54758130  0.92047401  1
  C  C9  6  0.02706609  0.36966457  0.96820872  1
  C  C10  6  0.21048408  0.46791692  0.23496382  1
  C  C11  6  0.25776993  0.63766796  0.61913825  1
  N  N12  6  -0.09260761  0.36979053  0.93397637  1
  N  N13  6  0.01204168  0.65244029  0.84646887  1
  N  N14  6  0.01729590  0.73358334  0.61959340  1
  N  N15  6  0.06571195  0.65248074  0.88887794  1
  N  N16  6  0.20167288  -0.26048929  0.07473718  1
  N  N17  6  0.20573868  0.78344884  0.62110275  1
  N  N18  6  0.21964883  0.47349630  0.55158015  1
  N  N19  6  0.29267392  0.66664300  0.24491575  1
  O  O20  6  -0.15501594  0.55356290  0.83808402  1
  O  O21  6  -0.10006856  0.56528864  0.61987252  1
  O  O22  6  -0.01760403  0.86181124  0.61867568  1
  O  O23  6  0.05675676  0.37243990  0.56314191  1
  O  O24  6  0.06373730  -0.29473487  0.05242212  1
  O  O25  6  0.13623372  0.75062076  0.82126157  1
  O  O26  6  0.16387018  0.70809590  0.18622795  1
  O  O27  6  0.20469422  -0.35828571  0.10310136  1
