###############################################################################################
#
# CIF file generated by modified CIFWriter class 
# in pymatgen (v2025.03.10) https://pymatgen.org/
#
###############################################################################################
data_MACE-OFF23(L)_1f094d36ea7b51c
_symmetry_space_group_name_H-M   P3_221
_cell_length_a   12.92647427
_cell_length_b   12.92647427
_cell_length_c   12.28936921
_cell_angle_alpha   90.00000000
_cell_angle_beta   90.00000000
_cell_angle_gamma   120.00000000
_symmetry_Int_Tables_number   154
_chemical_formula_moiety   'C4 H8 N8 O8'
_chemical_formula_sum   'H48 C24 N48 O48'
_cell_volume   1778.36292644
_cell_formula_units_Z   6
loop_
 _symmetry_equiv_pos_site_id
 _symmetry_equiv_pos_as_xyz
  1  'x, y, z'
  2  '-y, x-y, z+2/3'
  3  '-x+y, -x, z+1/3'
  4  'y, x, -z'
  5  'x-y, -y, -z+1/3'
  6  '-x, -x+y, -z+2/3'
loop_
 _atom_site_type_symbol
 _atom_site_label
 _atom_site_symmetry_multiplicity
 _atom_site_fract_x
 _atom_site_fract_y
 _atom_site_fract_z
 _atom_site_occupancy
  H  H0  6  -0.09658571  0.68752463  0.29068259  1
  H  H1  6  -0.02552664  0.46134848  0.17293067  1
  H  H2  6  -0.02498300  0.89603691  0.09637036  1
  H  H3  6  0.01640826  0.85184602  0.21607462  1
  H  H4  6  0.04082966  0.59125033  0.25384826  1
  H  H5  6  0.15218200  0.76119610  0.19125841  1
  H  H6  6  0.15503090  0.39927238  0.08945199  1
  H  H7  6  0.21146607  0.77122775  0.05994372  1
  C  C8  6  -0.15161166  0.63338053  0.22346590  1
  C  C9  6  -0.01635728  0.54857719  0.18387537  1
  C  C10  6  -0.00828459  0.82910413  0.13137860  1
  C  C11  6  0.13080586  0.74855343  0.10466715  1
  N  N12  6  -0.23475509  0.42199630  0.18477290  1
  N  N13  6  -0.13370679  0.53200923  0.20981199  1
  N  N14  6  -0.11503782  0.71396460  0.13155857  1
  N  N15  6  0.04179198  0.62402626  0.09077942  1
  N  N16  6  0.05128648  0.57054045  -0.00472460  1
  N  N17  6  0.08004799  0.23508699  0.66794161  1
  N  N18  6  0.08873265  0.82874030  0.07219580  1
  N  N19  6  0.13959911  0.32205009  0.29452530  1
  O  O20  6  -0.21887911  0.34940472  0.13805505  1
  O  O21  6  0.00097987  0.46255475  -0.00595835  1
  O  O22  6  0.00142706  0.12965374  0.66035646  1
  O  O23  6  0.08072081  0.31630541  0.61942473  1
  O  O24  6  0.10612052  0.63788882  -0.07777605  1
  O  O25  6  0.11634489  0.25827369  0.37388735  1
  O  O26  6  0.13827069  0.41523690  0.28999936  1
  O  O27  6  0.26185974  0.59202610  0.11714235  1
