###############################################################################################
#
# CIF file generated by modified CIFWriter class 
# in pymatgen (v2025.03.10) https://pymatgen.org/
#
###############################################################################################
data_MACE-OFF23(L)_251ef947ed75004
_symmetry_space_group_name_H-M   P6_2
_cell_length_a   19.70764980
_cell_length_b   19.70764980
_cell_length_c   5.85730344
_cell_angle_alpha   90.00000000
_cell_angle_beta   90.00000000
_cell_angle_gamma   120.00000000
_symmetry_Int_Tables_number   171
_chemical_formula_moiety   'C4 H8 N8 O8'
_chemical_formula_sum   'H48 C24 N48 O48'
_cell_volume   1970.14425981
_cell_formula_units_Z   6
loop_
 _symmetry_equiv_pos_site_id
 _symmetry_equiv_pos_as_xyz
  1  'x, y, z'
  2  'x-y, x, z+1/3'
  3  '-y, x-y, z+2/3'
  4  '-x, -y, z'
  5  '-x+y, -x, z+1/3'
  6  'y, -x+y, z+2/3'
loop_
 _atom_site_type_symbol
 _atom_site_label
 _atom_site_symmetry_multiplicity
 _atom_site_fract_x
 _atom_site_fract_y
 _atom_site_fract_z
 _atom_site_occupancy
  H  H0  6  -0.02118391  0.71958442  0.50297083  1
  H  H1  6  0.03694349  0.56073712  0.61092508  1
  H  H2  6  0.04739578  0.73338008  0.71809276  1
  H  H3  6  0.07708287  0.64613639  0.77970866  1
  H  H4  6  0.12240617  0.32848705  -0.00348472  1
  H  H5  6  0.16293845  0.35812331  0.27244388  1
  H  H6  6  0.22686581  0.75162259  0.67179066  1
  H  H7  6  0.26589988  0.72039904  0.45133753  1
  C  C8  6  0.03656579  0.72802385  0.53505032  1
  C  C9  6  0.07455902  0.62354626  0.60876371  1
  C  C10  6  0.17503625  0.82473629  0.42977994  1
  C  C11  6  0.21440496  0.72144201  0.50918429  1
  N  N12  6  0.02193535  0.63282905  0.24760006  1
  N  N13  6  0.04209720  0.66008762  0.46609305  1
  N  N14  6  0.06600870  0.83431321  0.26613005  1
  N  N15  6  0.09274108  0.79956379  0.42358014  1
  N  N16  6  0.15204619  0.64133595  0.53863680  1
  N  N17  6  0.16644136  0.58155772  0.49062030  1
  N  N18  6  0.18669483  0.74660622  0.12979276  1
  N  N19  6  0.19421597  0.76595699  0.35488549  1
  O  O20  6  -0.00391821  0.80939000  0.26232780  1
  O  O21  6  -0.00215207  0.66638649  0.12643736  1
  O  O22  6  0.03259192  0.57993393  0.19049837  1
  O  O23  6  0.11225338  0.22719374  -0.17905101  1
  O  O24  6  0.11268182  0.51446831  0.51644840  1
  O  O25  6  0.16494044  0.78127269  0.00405657  1
  O  O26  6  0.20009446  0.69537388  0.07251241  1
  O  O27  6  0.23239667  0.59926476  0.43463954  1
