###############################################################################################
#
# CIF file generated by modified CIFWriter class 
# in pymatgen (v2025.03.10) https://pymatgen.org/
#
###############################################################################################
data_MACE-OFF23(L)_25c8a3ab1061ff3
_symmetry_space_group_name_H-M   P3_121
_cell_length_a   13.26028564
_cell_length_b   13.26028564
_cell_length_c   13.97253976
_cell_angle_alpha   90.00000000
_cell_angle_beta   90.00000000
_cell_angle_gamma   120.00000000
_symmetry_Int_Tables_number   152
_chemical_formula_moiety   'C4 H8 N8 O8'
_chemical_formula_sum   'H48 C24 N48 O48'
_cell_volume   2127.70661795
_cell_formula_units_Z   6
loop_
 _symmetry_equiv_pos_site_id
 _symmetry_equiv_pos_as_xyz
  1  'x, y, z'
  2  '-y, x-y, z+1/3'
  3  '-x+y, -x, z+2/3'
  4  'y, x, -z'
  5  'x-y, -y, -z+2/3'
  6  '-x, -x+y, -z+1/3'
loop_
 _atom_site_type_symbol
 _atom_site_label
 _atom_site_symmetry_multiplicity
 _atom_site_fract_x
 _atom_site_fract_y
 _atom_site_fract_z
 _atom_site_occupancy
  H  H0  6  -0.25779107  0.35548912  0.30358655  1
  H  H1  6  -0.13698838  0.44054519  0.23097499  1
  H  H2  6  -0.05480640  0.69909213  0.34700516  1
  H  H3  6  -0.03072737  0.62704026  0.25081663  1
  H  H4  6  0.01490727  0.41355828  0.23148660  1
  H  H5  6  0.02232664  0.31352496  0.31057162  1
  H  H6  6  0.12444035  0.60136375  0.25133173  1
  H  H7  6  0.22699182  0.65880441  0.34438934  1
  C  C8  6  -0.16460018  0.41280311  0.30434454  1
  C  C9  6  -0.03714867  0.63023910  0.32852057  1
  C  C10  6  0.00702348  0.38614722  0.30568937  1
  C  C11  6  0.13548776  0.60385947  0.32875566  1
  N  N12  6  -0.19615932  0.51211595  0.43667694  1
  N  N13  6  -0.18270567  0.22958990  0.35724732  1
  N  N14  6  -0.13342642  0.51873682  0.35633545  1
  N  N15  6  -0.10976333  0.34927720  0.33823125  1
  N  N16  6  0.07237337  0.65528711  0.37126139  1
  N  N17  6  0.09580337  0.48505490  0.35712939  1
  N  N18  6  0.13783465  0.76420858  0.41636708  1
  N  N19  6  0.14602784  0.46467405  0.43559370  1
  O  O20  6  -0.26987786  0.41543416  0.46170390  1
  O  O21  6  -0.17483380  0.60274600  0.47537924  1
  O  O22  6  -0.13541429  0.17269636  0.36517335  1
  O  O23  6  0.08682574  0.81548182  0.43544121  1
  O  O24  6  0.12028038  0.36466787  0.45125752  1
  O  O25  6  0.19605199  -0.28528378  0.63381455  1
  O  O26  6  0.20421658  0.44323192  0.76618613  1
  O  O27  6  0.21351037  0.54899466  0.48173051  1
