###############################################################################################
#
# CIF file generated by modified CIFWriter class 
# in pymatgen (v2025.03.10) https://pymatgen.org/
#
###############################################################################################
data_MACE-OFF23(L)_27834310822a603
_symmetry_space_group_name_H-M   P6_3
_cell_length_a   17.51734160
_cell_length_b   17.51734160
_cell_length_c   6.69479879
_cell_angle_alpha   90.00000000
_cell_angle_beta   90.00000000
_cell_angle_gamma   120.00000000
_symmetry_Int_Tables_number   173
_chemical_formula_moiety   'C4 H8 N8 O8'
_chemical_formula_sum   'H48 C24 N48 O48'
_cell_volume   1779.11720322
_cell_formula_units_Z   6
loop_
 _symmetry_equiv_pos_site_id
 _symmetry_equiv_pos_as_xyz
  1  'x, y, z'
  2  'x-y, x, z+1/2'
  3  '-y, x-y, z'
  4  '-x, -y, z+1/2'
  5  '-x+y, -x, z'
  6  'y, -x+y, z+1/2'
loop_
 _atom_site_type_symbol
 _atom_site_label
 _atom_site_symmetry_multiplicity
 _atom_site_fract_x
 _atom_site_fract_y
 _atom_site_fract_z
 _atom_site_occupancy
  H  H0  6  -0.07856637  0.69265832  0.92308496  1
  H  H1  6  -0.00174800  0.51818691  0.97887332  1
  H  H2  6  0.01160366  0.70771891  1.07299973  1
  H  H3  6  0.06707763  0.62690584  1.06366923  1
  H  H4  6  0.13297906  0.30313987  0.72573910  1
  H  H5  6  0.16355223  0.80398272  0.93660459  1
  H  H6  6  0.20963561  0.71169624  0.90318191  1
  H  H7  6  0.22504691  0.67622610  0.66638258  1
  C  C8  6  -0.01421606  0.69815782  0.92145573  1
  C  C9  6  0.03561340  0.58631659  0.93326988  1
  C  C10  6  0.13621385  0.80151704  0.78936912  1
  C  C11  6  0.17852321  0.68221663  0.76119700  1
  N  N12  6  -0.09784560  0.55421453  0.75737839  1
  N  N13  6  -0.02081351  0.61644907  0.84964287  1
  N  N14  6  0.01085252  0.81800072  0.69201898  1
  N  N15  6  0.04468546  0.77559664  0.80921504  1
  N  N16  6  0.10286160  0.59437065  0.79538796  1
  N  N17  6  0.11248615  0.52218033  0.76046387  1
  N  N18  6  0.12943993  0.72759201  0.47498279  1
  N  N19  6  0.15258185  0.74060372  0.67403358  1
  O  O20  6  -0.14842631  0.57762934  0.70097208  1
  O  O21  6  -0.10739692  0.48114252  0.73897359  1
  O  O22  6  -0.06819309  0.78023654  0.67105540  1
  O  O23  6  0.05651091  0.45112325  0.82718417  1
  O  O24  6  0.06378118  0.88939130  0.62664858  1
  O  O25  6  0.10080117  0.77193676  0.40452049  1
  O  O26  6  0.14031386  0.67345985  0.38711903  1
  O  O27  6  0.17492731  0.53340252  0.66047429  1
