###############################################################################################
#
# CIF file generated by modified CIFWriter class 
# in pymatgen (v2025.03.10) https://pymatgen.org/
#
###############################################################################################
data_MACE-OFF23(L)_2ac3f0d3aea285c
_symmetry_space_group_name_H-M   P6_1
_cell_length_a   8.00574361
_cell_length_b   8.00574361
_cell_length_c   33.02006047
_cell_angle_alpha   90.00000000
_cell_angle_beta   90.00000000
_cell_angle_gamma   120.00000000
_symmetry_Int_Tables_number   169
_chemical_formula_moiety   'C4 H8 N8 O8'
_chemical_formula_sum   'H48 C24 N48 O48'
_cell_volume   1832.78638743
_cell_formula_units_Z   6
loop_
 _symmetry_equiv_pos_site_id
 _symmetry_equiv_pos_as_xyz
  1  'x, y, z'
  2  'x-y, x, z+1/6'
  3  '-y, x-y, z+1/3'
  4  '-x, -y, z+1/2'
  5  '-x+y, -x, z+2/3'
  6  'y, -x+y, z+5/6'
loop_
 _atom_site_type_symbol
 _atom_site_label
 _atom_site_symmetry_multiplicity
 _atom_site_fract_x
 _atom_site_fract_y
 _atom_site_fract_z
 _atom_site_occupancy
  H  H0  6  -0.11064556  0.62028190  0.24622306  1
  H  H1  6  -0.05096455  0.19107608  0.29118677  1
  H  H2  6  -0.00878594  0.47085933  0.94779300  1
  H  H3  6  0.04370559  0.65884587  0.28798204  1
  H  H4  6  0.05547547  0.52536994  0.56563662  1
  H  H5  6  0.07318214  0.42627666  0.31259878  1
  H  H6  6  0.15174573  0.52386059  0.61374755  1
  H  H7  6  0.21463097  0.60241386  0.97303142  1
  C  C8  6  0.01409516  0.61349983  0.25646219  1
  C  C9  6  0.05065074  0.34148603  0.28528432  1
  C  C10  6  0.13594430  0.59211960  0.94540590  1
  C  C11  6  0.18480019  0.55591667  0.58174986  1
  N  N12  6  -0.13784011  0.29854580  0.22452175  1
  N  N13  6  -0.05589705  0.75062225  0.94294329  1
  N  N14  6  -0.02621125  0.41708805  0.25571501  1
  N  N15  6  0.12452326  0.76622698  0.94013842  1
  N  N16  6  0.13567968  0.28765264  0.53880479  1
  N  N17  6  0.15114576  0.50489412  0.87587783  1
  N  N18  6  0.17891644  0.74435988  0.23191160  1
  N  N19  6  0.24085107  0.56423235  0.91302691  1
  O  O20  6  -0.19525363  0.59043539  0.94595215  1
  O  O21  6  -0.18736118  0.37207912  0.19867147  1
  O  O22  6  -0.01934083  0.45449037  0.87476874  1
  O  O23  6  -0.01318625  0.28181801  0.52831487  1
  O  O24  6  -0.01064121  0.81174875  0.19468426  1
  O  O25  6  0.03991720  -0.06049283  0.10861540  1
  O  O26  6  0.13169988  0.30839739  0.05920751  1
  O  O27  6  0.24874907  0.50887780  0.84758894  1
