###############################################################################################
#
# CIF file generated by modified CIFWriter class 
# in pymatgen (v2025.03.10) https://pymatgen.org/
#
###############################################################################################
data_MACE-OFF23(L)_2e8a1f62675c5f7
_symmetry_space_group_name_H-M   P3_221
_cell_length_a   11.90481356
_cell_length_b   11.90481356
_cell_length_c   14.48698264
_cell_angle_alpha   90.00000000
_cell_angle_beta   90.00000000
_cell_angle_gamma   120.00000000
_symmetry_Int_Tables_number   154
_chemical_formula_moiety   'C4 H8 N8 O8'
_chemical_formula_sum   'H48 C24 N48 O48'
_cell_volume   1778.09011836
_cell_formula_units_Z   6
loop_
 _symmetry_equiv_pos_site_id
 _symmetry_equiv_pos_as_xyz
  1  'x, y, z'
  2  '-y, x-y, z+2/3'
  3  '-x+y, -x, z+1/3'
  4  'y, x, -z'
  5  'x-y, -y, -z+1/3'
  6  '-x, -x+y, -z+2/3'
loop_
 _atom_site_type_symbol
 _atom_site_label
 _atom_site_symmetry_multiplicity
 _atom_site_fract_x
 _atom_site_fract_y
 _atom_site_fract_z
 _atom_site_occupancy
  H  H0  6  -0.14501923  0.53150989  0.19184698  1
  H  H1  6  -0.04641890  0.57747481  -0.05149512  1
  H  H2  6  -0.03555222  0.50577593  0.05237530  1
  H  H3  6  0.04371633  0.59668311  0.24972628  1
  H  H4  6  0.11486779  0.74531865  0.31079511  1
  H  H5  6  0.14544877  0.57843851  0.11723435  1
  H  H6  6  0.15365565  0.36221737  0.15161134  1
  H  H7  6  0.28384552  0.56905162  0.73965200  1
  C  C8  6  -0.12852550  0.62353910  0.16337032  1
  C  C9  6  -0.02534838  0.59364457  0.02147823  1
  C  C10  6  0.08620638  0.70120067  0.24337905  1
  C  C11  6  0.18937605  0.68098088  0.10127211  1
  N  N12  6  -0.12017217  0.62319778  0.06265681  1
  N  N13  6  -0.01169772  0.72363140  0.20495712  1
  N  N14  6  0.00206753  0.84622004  0.21753684  1
  N  N15  6  0.10613371  0.69487459  0.03613606  1
  N  N16  6  0.16481445  0.78750187  -0.03326247  1
  N  N17  6  0.18142524  0.50172118  0.89496195  1
  N  N18  6  0.19376518  0.43243939  0.31590649  1
  N  N19  6  0.20119461  0.75148540  0.18613619  1
  O  O20  6  0.05459942  0.13893348  0.14380119  1
  O  O21  6  0.07477623  0.17626887  0.92221924  1
  O  O22  6  0.09498034  0.79110582  -0.09126736  1
  O  O23  6  0.12060259  0.45455557  0.26981828  1
  O  O24  6  0.14272032  0.42462663  0.63967476  1
  O  O25  6  0.14675078  0.46918266  0.97441861  1
  O  O26  6  0.15885124  0.57459324  0.85057554  1
  O  O27  6  0.21303507  0.45418343  0.39742010  1
