###############################################################################################
#
# CIF file generated by modified CIFWriter class 
# in pymatgen (v2025.03.10) https://pymatgen.org/
#
###############################################################################################
data_MACE-OFF23(L)_303a07b8f2df760
_symmetry_space_group_name_H-M   P-3
_cell_length_a   14.19301218
_cell_length_b   14.19301218
_cell_length_c   14.31800886
_cell_angle_alpha   90.00000000
_cell_angle_beta   90.00000000
_cell_angle_gamma   120.00000000
_symmetry_Int_Tables_number   147
_chemical_formula_moiety   'C4 H8 N8 O8'
_chemical_formula_sum   'H48 C24 N48 O48'
_cell_volume   2497.82730920
_cell_formula_units_Z   6
loop_
 _symmetry_equiv_pos_site_id
 _symmetry_equiv_pos_as_xyz
  1  'x, y, z'
  2  '-x, -y, -z'
  3  '-y, x-y, z'
  4  'y, -x+y, -z'
  5  '-x+y, -x, z'
  6  'x-y, x, -z'
loop_
 _atom_site_type_symbol
 _atom_site_label
 _atom_site_symmetry_multiplicity
 _atom_site_fract_x
 _atom_site_fract_y
 _atom_site_fract_z
 _atom_site_occupancy
  H  H0  6  0.06628258  0.93155245  0.70454321  1
  H  H1  6  0.07056460  0.25953882  0.69881157  1
  H  H2  6  0.09101802  0.71681204  0.53463971  1
  H  H3  6  0.11428923  0.36190700  0.82688514  1
  H  H4  6  0.16198579  0.82638485  0.92521502  1
  H  H5  6  0.18163123  0.38647956  0.59580410  1
  H  H6  6  0.21603414  0.48551413  0.72005186  1
  H  H7  6  0.22963035  0.64748517  0.74841585  1
  C  C8  6  0.10161593  0.87984432  0.71026284  1
  C  C9  6  0.12159259  0.75190116  0.60264364  1
  C  C10  6  0.16870284  0.82076330  0.85048649  1
  C  C11  6  0.20169345  0.70499642  0.73979251  1
  N  N12  6  -0.01963369  0.79770511  0.57704150  1
  N  N13  6  -0.01292964  0.79556152  0.84564400  1
  N  N14  6  0.04496534  0.56507876  0.65491329  1
  N  N15  6  0.05510089  0.79547588  0.63869330  1
  N  N16  6  0.08829995  0.83758213  0.80408349  1
  N  N17  6  0.12611968  0.67268704  0.66255834  1
  N  N18  6  0.15921412  0.71595854  0.82841691  1
  N  N19  6  0.15949200  0.65249753  0.90313150  1
  O  O20  6  -0.08130339  0.80447267  0.80187274  1
  O  O21  6  -0.05204198  0.85990561  0.59335102  1
  O  O22  6  -0.04841755  0.73456791  0.51154113  1
  O  O23  6  -0.02471669  0.54344215  0.59717411  1
  O  O24  6  -0.02452169  0.75387278  0.92158957  1
  O  O25  6  0.05230040  0.50097996  0.70672309  1
  O  O26  6  0.13481097  0.67041464  0.97849901  1
  O  O27  6  0.18196164  0.58221315  0.88496698  1
