###############################################################################################
#
# CIF file generated by modified CIFWriter class 
# in pymatgen (v2025.03.10) https://pymatgen.org/
#
###############################################################################################
data_MACE-OFF23(L)_30ae3eff9a92753
_symmetry_space_group_name_H-M   P31c
_cell_length_a   12.39311230
_cell_length_b   12.39311230
_cell_length_c   15.24404751
_cell_angle_alpha   90.00000000
_cell_angle_beta   90.00000000
_cell_angle_gamma   120.00000000
_symmetry_Int_Tables_number   159
_chemical_formula_moiety   'C4 H8 N8 O8'
_chemical_formula_sum   'H48 C24 N48 O48'
_cell_volume   2027.64394768
_cell_formula_units_Z   6
loop_
 _symmetry_equiv_pos_site_id
 _symmetry_equiv_pos_as_xyz
  1  'x, y, z'
  2  '-y, x-y, z'
  3  '-x+y, -x, z'
  4  'y, x, z+1/2'
  5  'x-y, -y, z+1/2'
  6  '-x, -x+y, z+1/2'
loop_
 _atom_site_type_symbol
 _atom_site_label
 _atom_site_symmetry_multiplicity
 _atom_site_fract_x
 _atom_site_fract_y
 _atom_site_fract_z
 _atom_site_occupancy
  H  H0  6  -0.11189325  0.48180507  0.08172957  1
  H  H1  6  -0.11171508  0.65900296  0.06713319  1
  H  H2  6  -0.10798026  0.50479755  0.22579501  1
  H  H3  6  -0.10553590  0.68350939  0.20880839  1
  H  H4  6  -0.00343357  0.77684833  -0.00265175  1
  H  H5  6  -0.00091123  0.45571400  0.02689123  1
  H  H6  6  0.00506111  0.49617399  0.29161924  1
  H  H7  6  0.01027567  0.82096796  0.26005505  1
  C  C8  6  -0.01290772  0.51732874  0.07111262  1
  C  C9  6  -0.01290736  0.71834879  0.05282218  1
  C  C10  6  -0.00848096  0.54306113  0.23634541  1
  C  C11  6  -0.00574551  0.74504431  0.21701206  1
  N  N12  6  0.03711479  0.63849054  0.03080010  1
  N  N13  6  0.03756078  0.51648807  0.15666505  1
  N  N14  6  0.04133637  0.79306158  0.13033735  1
  N  N15  6  0.04482624  0.67390493  0.25691985  1
  N  N16  6  0.08613843  0.22453493  0.12140438  1
  N  N17  6  0.10721647  0.66331187  -0.04535035  1
  N  N18  6  0.11115924  0.71799435  0.33487882  1
  N  N19  6  0.14594763  0.51055573  0.16118428  1
  O  O20  6  0.03034811  0.21921151  0.18861746  1
  O  O21  6  0.04310239  0.20893473  0.04814836  1
  O  O22  6  0.13376465  0.58630738  -0.06891403  1
  O  O23  6  0.13556932  0.76019359  -0.08305275  1
  O  O24  6  0.13588880  0.64843247  0.37475475  1
  O  O25  6  0.13945610  0.82242106  0.35727039  1
  O  O26  6  0.18760337  0.49705286  0.09246511  1
  O  O27  6  0.19010667  0.51736699  0.23297261  1
