###############################################################################################
#
# CIF file generated by modified CIFWriter class 
# in pymatgen (v2025.03.10) https://pymatgen.org/
#
###############################################################################################
data_MACE-OFF23(L)_328b99dfc33da0b
_symmetry_space_group_name_H-M   P3_121
_cell_length_a   7.70488429
_cell_length_b   7.70488429
_cell_length_c   34.24826338
_cell_angle_alpha   90.00000000
_cell_angle_beta   90.00000000
_cell_angle_gamma   120.00000000
_symmetry_Int_Tables_number   152
_chemical_formula_moiety   'C4 H8 N8 O8'
_chemical_formula_sum   'H48 C24 N48 O48'
_cell_volume   1760.76512797
_cell_formula_units_Z   6
loop_
 _symmetry_equiv_pos_site_id
 _symmetry_equiv_pos_as_xyz
  1  'x, y, z'
  2  '-y, x-y, z+1/3'
  3  '-x+y, -x, z+2/3'
  4  'y, x, -z'
  5  'x-y, -y, -z+2/3'
  6  '-x, -x+y, -z+1/3'
loop_
 _atom_site_type_symbol
 _atom_site_label
 _atom_site_symmetry_multiplicity
 _atom_site_fract_x
 _atom_site_fract_y
 _atom_site_fract_z
 _atom_site_occupancy
  H  H0  6  -0.13024030  0.24689184  0.72248847  1
  H  H1  6  -0.05056603  0.06358725  0.26329426  1
  H  H2  6  -0.03275176  0.05953951  0.21203237  1
  H  H3  6  -0.01404428  0.12538620  0.70009995  1
  H  H4  6  0.02230515  0.67636555  0.33611010  1
  H  H5  6  0.16511155  0.39307895  0.29646766  1
  H  H6  6  0.16963800  0.56380135  0.34403810  1
  H  H7  6  0.28482239  0.60918508  0.26627512  1
  C  C8  6  -0.20216043  0.54207535  0.39634880  1
  C  C9  6  0.00930499  0.24669409  0.71960164  1
  C  C10  6  0.05151825  0.12403525  0.23850897  1
  C  C11  6  0.11102180  0.65023733  0.35757808  1
  N  N12  6  -0.01938990  0.53875105  0.38957271  1
  N  N13  6  -0.01303794  0.37158885  0.40362730  1
  N  N14  6  0.02160654  0.40903684  0.21950143  1
  N  N15  6  0.04129784  0.29057345  0.78958178  1
  N  N16  6  0.06915960  0.20286869  0.75643679  1
  N  N17  6  0.13252817  0.60012987  0.70498263  1
  N  N18  6  0.14296910  0.34246514  0.23643971  1
  N  N19  6  0.15665440  0.43359389  0.70172290  1
  O  O20  6  -0.12485446  0.28686538  0.20184008  1
  O  O21  6  -0.12080811  0.28491803  0.43060961  1
  O  O22  6  -0.03679747  0.56803913  0.70855433  1
  O  O23  6  0.00081436  0.42099347  0.78343951  1
  O  O24  6  0.06451780  0.23277348  0.82071713  1
  O  O25  6  0.07328468  0.58494146  0.22346750  1
  O  O26  6  0.10270766  0.33108763  0.38733015  1
  O  O27  6  0.23580981  0.51695471  0.03550154  1
