###############################################################################################
#
# CIF file generated by modified CIFWriter class 
# in pymatgen (v2025.03.10) https://pymatgen.org/
#
###############################################################################################
data_MACE-OFF23(L)_351041165eef91a
_symmetry_space_group_name_H-M   P6_3
_cell_length_a   12.51789031
_cell_length_b   12.51789031
_cell_length_c   12.75504695
_cell_angle_alpha   90.00000000
_cell_angle_beta   90.00000000
_cell_angle_gamma   120.00000000
_symmetry_Int_Tables_number   173
_chemical_formula_moiety   'C4 H8 N8 O8'
_chemical_formula_sum   'H48 C24 N48 O48'
_cell_volume   1730.91195083
_cell_formula_units_Z   6
loop_
 _symmetry_equiv_pos_site_id
 _symmetry_equiv_pos_as_xyz
  1  'x, y, z'
  2  'x-y, x, z+1/2'
  3  '-y, x-y, z'
  4  '-x, -y, z+1/2'
  5  '-x+y, -x, z'
  6  'y, -x+y, z+1/2'
loop_
 _atom_site_type_symbol
 _atom_site_label
 _atom_site_symmetry_multiplicity
 _atom_site_fract_x
 _atom_site_fract_y
 _atom_site_fract_z
 _atom_site_occupancy
  H  H0  6  -0.07088069  0.53100605  0.76886825  1
  H  H1  6  0.02050098  0.51149009  0.46342176  1
  H  H2  6  0.08324693  0.57795763  0.73833693  1
  H  H3  6  0.08592317  0.33604610  0.85030235  1
  H  H4  6  0.13584183  0.55607319  0.56030745  1
  H  H5  6  0.13658139  0.28120417  0.54316541  1
  H  H6  6  0.16375645  0.46534938  0.76787135  1
  H  H7  6  0.20798329  0.43342792  0.59277330  1
  C  C8  6  -0.01187077  0.50556757  0.72704930  1
  C  C9  6  0.04141096  0.48865298  0.53942110  1
  C  C10  6  0.08227587  0.37408375  0.77516478  1
  C  C11  6  0.12175952  0.34524478  0.58911472  1
  N  N12  6  -0.14733408  0.49123225  0.58188385  1
  N  N13  6  -0.12423407  0.31677343  0.82956905  1
  N  N14  6  -0.05523672  0.27655811  0.47687170  1
  N  N15  6  -0.03875396  0.49855866  0.61618119  1
  N  N16  6  -0.02169997  0.39474003  0.77145380  1
  N  N17  6  0.03569392  0.37124019  0.53628945  1
  N  N18  6  0.08324411  0.29563314  0.69302589  1
  N  N19  6  0.09416632  0.19325526  0.72125926  1
  O  O20  6  -0.21207449  0.50126389  0.64774309  1
  O  O21  6  -0.20008494  0.34799479  0.84596033  1
  O  O22  6  -0.16893322  0.47689494  0.48890576  1
  O  O23  6  -0.12957356  0.22283274  0.86115492  1
  O  O24  6  -0.10048085  0.30669719  0.40662967  1
  O  O25  6  -0.08097148  0.17336782  0.50028049  1
  O  O26  6  0.02049618  0.86970368  0.65364494  1
  O  O27  6  0.06710103  0.15745320  0.80997368  1
