###############################################################################################
#
# CIF file generated by modified CIFWriter class 
# in pymatgen (v2025.03.10) https://pymatgen.org/
#
###############################################################################################
data_MACE-OFF23(L)_3d5350b86232efb
_symmetry_space_group_name_H-M   P6_3
_cell_length_a   15.35053596
_cell_length_b   15.35053596
_cell_length_c   10.43037964
_cell_angle_alpha   90.00000000
_cell_angle_beta   90.00000000
_cell_angle_gamma   120.00000000
_symmetry_Int_Tables_number   173
_chemical_formula_moiety   'C4 H8 N8 O8'
_chemical_formula_sum   'H48 C24 N48 O48'
_cell_volume   2128.52048471
_cell_formula_units_Z   6
loop_
 _symmetry_equiv_pos_site_id
 _symmetry_equiv_pos_as_xyz
  1  'x, y, z'
  2  'x-y, x, z+1/2'
  3  '-y, x-y, z'
  4  '-x, -y, z+1/2'
  5  '-x+y, -x, z'
  6  'y, -x+y, z+1/2'
loop_
 _atom_site_type_symbol
 _atom_site_label
 _atom_site_symmetry_multiplicity
 _atom_site_fract_x
 _atom_site_fract_y
 _atom_site_fract_z
 _atom_site_occupancy
  H  H0  6  -0.12120630  0.22364483  0.62776890  1
  H  H1  6  -0.07696625  0.35129916  0.58988162  1
  H  H2  6  0.00543992  0.41322202  0.40794755  1
  H  H3  6  0.04128237  0.33975429  0.31419602  1
  H  H4  6  0.04441976  0.47651061  0.71443198  1
  H  H5  6  0.09512507  0.44400928  0.84739932  1
  H  H6  6  0.12805921  0.53822102  0.54428021  1
  H  H7  6  0.25397914  0.56745624  0.53098110  1
  C  C8  6  -0.05438174  0.29565273  0.61055978  1
  C  C9  6  0.04515486  0.37077371  0.40854492  1
  C  C10  6  0.07667325  0.43116606  0.74659999  1
  C  C11  6  0.17783472  0.50713527  0.54583930  1
  N  N12  6  -0.03468608  0.19124163  0.45463546  1
  N  N13  6  -0.02475740  0.26232920  0.83264801  1
  N  N14  6  -0.00158373  0.28957243  0.49936603  1
  N  N15  6  0.00492481  0.32659406  0.72716192  1
  N  N16  6  0.15144220  0.43679681  0.43957868  1
  N  N17  6  0.16752171  0.46520119  0.67202620  1
  N  N18  6  0.21459140  0.75312669  0.72645315  1
  N  N19  6  0.21642715  0.47372322  0.33530542  1
  O  O20  6  -0.09147461  0.17673773  0.81576041  1
  O  O21  6  -0.06156778  0.12783056  0.53686065  1
  O  O22  6  -0.03344261  0.17921187  0.34049395  1
  O  O23  6  0.01865614  0.29785162  0.93240287  1
  O  O24  6  0.16736058  0.67878181  0.65988955  1
  O  O25  6  0.18066699  0.45394682  0.22879241  1
  O  O26  6  0.19452947  0.76225086  0.83629991  1
  O  O27  6  0.21660607  0.69384261  0.35935352  1
