###############################################################################################
#
# CIF file generated by modified CIFWriter class 
# in pymatgen (v2025.03.10) https://pymatgen.org/
#
###############################################################################################
data_MACE-OFF23(L)_3df64d73b5cbbf3
_symmetry_space_group_name_H-M   P6_2
_cell_length_a   12.57942684
_cell_length_b   12.57942684
_cell_length_c   13.52692691
_cell_angle_alpha   90.00000000
_cell_angle_beta   90.00000000
_cell_angle_gamma   120.00000000
_symmetry_Int_Tables_number   171
_chemical_formula_moiety   'C4 H8 N8 O8'
_chemical_formula_sum   'H48 C24 N48 O48'
_cell_volume   1853.75135926
_cell_formula_units_Z   6
loop_
 _symmetry_equiv_pos_site_id
 _symmetry_equiv_pos_as_xyz
  1  'x, y, z'
  2  'x-y, x, z+1/3'
  3  '-y, x-y, z+2/3'
  4  '-x, -y, z'
  5  '-x+y, -x, z+1/3'
  6  'y, -x+y, z+2/3'
loop_
 _atom_site_type_symbol
 _atom_site_label
 _atom_site_symmetry_multiplicity
 _atom_site_fract_x
 _atom_site_fract_y
 _atom_site_fract_z
 _atom_site_occupancy
  H  H0  6  -0.04017501  0.31560255  0.86596933  1
  H  H1  6  0.00482539  0.39316236  0.98080463  1
  H  H2  6  0.06282554  0.32069992  1.09697534  1
  H  H3  6  0.06814130  0.18443263  1.07826244  1
  H  H4  6  0.09655081  0.59499697  0.41039280  1
  H  H5  6  0.22429226  0.59600176  0.97985175  1
  H  H6  6  0.24538758  0.72095372  0.42530480  1
  H  H7  6  0.29794914  0.63246346  0.86427483  1
  C  C8  6  0.03647688  0.36633887  0.91563341  1
  C  C9  6  0.10685697  0.27901448  1.05597344  1
  C  C10  6  0.15841697  0.68801014  0.38698927  1
  C  C11  6  0.24201876  0.55783681  0.91400268  1
  N  N12  6  -0.01313286  0.70876651  0.44702373  1
  N  N13  6  0.08157434  0.28813656  0.95279524  1
  N  N14  6  0.09704975  0.64742834  0.21621136  1
  N  N15  6  0.10510424  0.22018443  0.88632672  1
  N  N16  6  0.10694218  0.76371152  0.41302118  1
  N  N17  6  0.12122645  0.48287730  0.76190486  1
  N  N18  6  0.12691375  0.47723967  0.86575693  1
  N  N19  6  0.18976345  0.69236070  0.28297678  1
  O  O20  6  -0.06575159  0.59851154  0.46006631  1
  O  O21  6  -0.05490575  0.77488675  0.46484143  1
  O  O22  6  -0.00637239  0.61141154  0.24671418  1
  O  O23  6  0.01495973  0.86569459  0.25324326  1
  O  O24  6  0.03005132  0.40472193  0.72243193  1
  O  O25  6  0.09963115  0.24138360  0.79962824  1
  O  O26  6  0.12423359  0.64883542  0.12966418  1
  O  O27  6  0.20668849  0.56982646  0.72222305  1
