###############################################################################################
#
# CIF file generated by modified CIFWriter class 
# in pymatgen (v2025.03.10) https://pymatgen.org/
#
###############################################################################################
data_MACE-OFF23(L)_43e8803b65b724e
_symmetry_space_group_name_H-M   P6
_cell_length_a   19.04900795
_cell_length_b   19.04900795
_cell_length_c   6.63004036
_cell_angle_alpha   90.00000000
_cell_angle_beta   90.00000000
_cell_angle_gamma   120.00000000
_symmetry_Int_Tables_number   168
_chemical_formula_moiety   'C4 H8 N8 O8'
_chemical_formula_sum   'H48 C24 N48 O48'
_cell_volume   2083.49052493
_cell_formula_units_Z   6
loop_
 _symmetry_equiv_pos_site_id
 _symmetry_equiv_pos_as_xyz
  1  'x, y, z'
  2  'x-y, x, z'
  3  '-y, x-y, z'
  4  '-x, -y, z'
  5  '-x+y, -x, z'
  6  'y, -x+y, z'
loop_
 _atom_site_type_symbol
 _atom_site_label
 _atom_site_symmetry_multiplicity
 _atom_site_fract_x
 _atom_site_fract_y
 _atom_site_fract_z
 _atom_site_occupancy
  H  H0  6  0.07648545  0.47491052  0.75266294  1
  H  H1  6  0.09902472  0.67068474  0.44634486  1
  H  H2  6  0.14555718  0.30416229  0.80718844  1
  H  H3  6  0.16033807  0.68615881  0.65985362  1
  H  H4  6  0.17792542  0.50717013  0.82221820  1
  H  H5  6  0.18983435  0.78243611  0.85300099  1
  H  H6  6  0.25686671  0.59628543  0.36384240  1
  H  H7  6  0.27563478  0.57547689  0.61274835  1
  C  C8  6  0.12940464  0.47024313  0.71721341  1
  C  C9  6  0.15630263  0.71191148  0.51658897  1
  C  C10  6  0.17124385  0.36533310  0.74955152  1
  C  C11  6  0.24569897  0.54869887  0.47004450  1
  N  N12  6  0.02887750  0.32805307  0.77837417  1
  N  N13  6  0.10355168  0.80451378  0.46865716  1
  N  N14  6  0.10432477  0.47941357  0.36308789  1
  N  N15  6  0.10833992  0.38657869  0.74043724  1
  N  N16  6  0.16008739  0.50325335  0.51902186  1
  N  N17  6  0.16110476  0.78872048  0.55890230  1
  N  N18  6  0.20799749  0.70135447  0.18492598  1
  N  N19  6  0.22176981  0.71861469  0.39148343  1
  O  O20  6  -0.01985172  0.35106496  0.79726019  1
  O  O21  6  0.01375861  0.25857408  0.79401742  1
  O  O22  6  0.03382570  0.43905790  0.40980682  1
  O  O23  6  0.05466535  0.75290261  0.35762358  1
  O  O24  6  0.10962258  0.86878550  0.50944680  1
  O  O25  6  0.13134450  0.50166089  0.19525602  1
  O  O26  6  0.14268448  0.68596354  0.12046084  1
  O  O27  6  0.26200887  0.70072474  0.08950114  1
