###############################################################################################
#
# CIF file generated by modified CIFWriter class 
# in pymatgen (v2025.03.10) https://pymatgen.org/
#
###############################################################################################
data_MACE-OFF23(L)_4a7a0302d733dcd
_symmetry_space_group_name_H-M   P-3
_cell_length_a   15.75647083
_cell_length_b   15.75647083
_cell_length_c   8.93881244
_cell_angle_alpha   90.00000000
_cell_angle_beta   90.00000000
_cell_angle_gamma   120.00000000
_symmetry_Int_Tables_number   147
_chemical_formula_moiety   'C4 H8 N8 O8'
_chemical_formula_sum   'H48 C24 N48 O48'
_cell_volume   1921.88924312
_cell_formula_units_Z   6
loop_
 _symmetry_equiv_pos_site_id
 _symmetry_equiv_pos_as_xyz
  1  'x, y, z'
  2  '-x, -y, -z'
  3  '-y, x-y, z'
  4  'y, -x+y, -z'
  5  '-x+y, -x, z'
  6  'x-y, x, -z'
loop_
 _atom_site_type_symbol
 _atom_site_label
 _atom_site_symmetry_multiplicity
 _atom_site_fract_x
 _atom_site_fract_y
 _atom_site_fract_z
 _atom_site_occupancy
  H  H0  6  -0.03767648  0.76197546  0.23748176  1
  H  H1  6  0.00564417  0.68331188  0.17707467  1
  H  H2  6  0.07379780  0.62221567  0.34669509  1
  H  H3  6  0.08129646  0.65383382  0.53797880  1
  H  H4  6  0.13044212  0.73415776  0.04179110  1
  H  H5  6  0.14290683  0.33767574  -0.01875676  1
  H  H6  6  0.20068668  0.67684823  0.21328943  1
  H  H7  6  0.24257630  0.56173526  0.28765392  1
  C  C8  6  0.02336235  0.74869155  0.24127054  1
  C  C9  6  0.09563514  0.68234360  0.42514776  1
  C  C10  6  0.17215375  0.80999574  0.07844783  1
  C  C11  6  0.24774153  0.74798908  0.26393514  1
  N  N12  6  -0.01416490  0.73984172  0.50818205  1
  N  N13  6  0.03835218  0.72886755  0.39486950  1
  N  N14  6  0.08200526  0.19338026  0.15763984  1
  N  N15  6  0.09539345  0.44304291  0.13727137  1
  N  N16  6  0.10864945  0.82839977  0.17194185  1
  N  N17  6  0.17984801  0.43816030  0.15431393  1
  N  N18  6  0.19925964  0.45577413  0.52237802  1
  N  N19  6  0.19987933  0.74669737  0.40276794  1
  O  O20  6  -0.06412383  0.77583498  0.47768211  1
  O  O21  6  -0.00885839  0.71044287  0.63214591  1
  O  O22  6  0.02285441  0.19587630  0.07352799  1
  O  O23  6  0.03252550  0.38392186  0.05570707  1
  O  O24  6  0.05469873  0.92927538  0.23230466  1
  O  O25  6  0.09144536  0.50903757  0.20143497  1
  O  O26  6  0.14821271  0.49229358  0.50060816  1
  O  O27  6  0.20587400  0.42082960  0.63925936  1
