###############################################################################################
#
# CIF file generated by modified CIFWriter class 
# in pymatgen (v2025.03.10) https://pymatgen.org/
#
###############################################################################################
data_MACE-OFF23(L)_4ce5f567ee3006c
_symmetry_space_group_name_H-M   P3_212
_cell_length_a   7.73168061
_cell_length_b   7.73168061
_cell_length_c   35.58763285
_cell_angle_alpha   90.00000000
_cell_angle_beta   90.00000000
_cell_angle_gamma   120.00000000
_symmetry_Int_Tables_number   153
_chemical_formula_moiety   'C4 H8 N8 O8'
_chemical_formula_sum   'H48 C24 N48 O48'
_cell_volume   1842.37292897
_cell_formula_units_Z   6
loop_
 _symmetry_equiv_pos_site_id
 _symmetry_equiv_pos_as_xyz
  1  'x, y, z'
  2  '-y, x-y, z+2/3'
  3  '-x+y, -x, z+1/3'
  4  '-y, -x, -z+1/3'
  5  '-x+y, y, -z+2/3'
  6  'x, x-y, -z'
loop_
 _atom_site_type_symbol
 _atom_site_label
 _atom_site_symmetry_multiplicity
 _atom_site_fract_x
 _atom_site_fract_y
 _atom_site_fract_z
 _atom_site_occupancy
  H  H0  6  -0.14536106  0.57454506  0.79126388  1
  H  H1  6  -0.01429906  0.69635046  0.68198431  1
  H  H2  6  0.10402163  0.68249686  0.77571088  1
  H  H3  6  0.10705393  0.71802465  0.01652523  1
  H  H4  6  0.11216881  0.85185700  0.12555565  1
  H  H5  6  0.17275872  0.42865609  0.28468281  1
  H  H6  6  0.24503639  0.51064741  0.89018785  1
  H  H7  6  0.24670372  0.57838409  0.95055874  1
  C  C8  6  -0.04637223  0.55637460  0.77232371  1
  C  C9  6  0.03166342  0.62918792  0.70356176  1
  C  C10  6  0.13625541  0.77405602  0.22699424  1
  C  C11  6  0.21532983  0.77713363  0.29569196  1
  N  N12  6  -0.29009970  0.15517091  0.27137065  1
  N  N13  6  -0.21773051  0.57841787  0.21168581  1
  N  N14  6  -0.11155415  0.55628526  0.73408618  1
  N  N15  6  -0.03582825  0.38078043  0.78241983  1
  N  N16  6  -0.01761425  0.39194016  0.65350603  1
  N  N17  6  -0.01640373  0.86905533  0.06329118  1
  N  N18  6  0.07230948  0.59007271  0.31292534  1
  N  N19  6  0.13711757  0.84139661  0.26507675  1
  O  O20  6  -0.38438903  0.55184802  0.75616686  1
  O  O21  6  -0.36500708  0.22013679  0.78973365  1
  O  O22  6  -0.34069320  0.55377585  0.69649699  1
  O  O23  6  -0.20937325  0.73734015  0.20791971  1
  O  O24  6  -0.13472649  0.43547116  0.63994059  1
  O  O25  6  -0.10006582  0.01744583  0.90892492  1
  O  O26  6  -0.07196711  0.06498653  0.96864400  1
  O  O27  6  0.02467211  0.75132427  0.35976236  1
