###############################################################################################
#
# CIF file generated by modified CIFWriter class 
# in pymatgen (v2025.03.10) https://pymatgen.org/
#
###############################################################################################
data_MACE-OFF23(L)_519e718734c119
_symmetry_space_group_name_H-M   P-3
_cell_length_a   17.51256299
_cell_length_b   17.51256299
_cell_length_c   7.47315020
_cell_angle_alpha   90.00000000
_cell_angle_beta   90.00000000
_cell_angle_gamma   120.00000000
_symmetry_Int_Tables_number   147
_chemical_formula_moiety   'C4 H8 N8 O8'
_chemical_formula_sum   'H48 C24 N48 O48'
_cell_volume   1984.87775076
_cell_formula_units_Z   6
loop_
 _symmetry_equiv_pos_site_id
 _symmetry_equiv_pos_as_xyz
  1  'x, y, z'
  2  '-x, -y, -z'
  3  '-y, x-y, z'
  4  'y, -x+y, -z'
  5  '-x+y, -x, z'
  6  'x-y, x, -z'
loop_
 _atom_site_type_symbol
 _atom_site_label
 _atom_site_symmetry_multiplicity
 _atom_site_fract_x
 _atom_site_fract_y
 _atom_site_fract_z
 _atom_site_occupancy
  H  H0  6  -0.06971245  0.29200834  0.59715486  1
  H  H1  6  -0.03341481  0.37616006  0.76026415  1
  H  H2  6  0.04783176  0.38565809  0.96927543  1
  H  H3  6  0.07601626  0.52469116  0.67986881  1
  H  H4  6  0.07665190  0.30310459  1.00209980  1
  H  H5  6  0.11597933  0.54495123  0.45740292  1
  H  H6  6  0.15935480  0.53210827  0.89634775  1
  H  H7  6  0.26746907  0.55198431  0.85681912  1
  C  C8  6  -0.01237374  0.34706066  0.65662627  1
  C  C9  6  0.08266486  0.35453134  0.91273410  1
  C  C10  6  0.10057700  0.50180239  0.57131260  1
  C  C11  6  0.19833727  0.50763954  0.83047581  1
  N  N12  6  0.01523163  0.39296422  0.34210855  1
  N  N13  6  0.02400348  0.23134045  0.70433299  1
  N  N14  6  0.03170104  0.41455172  0.52116893  1
  N  N15  6  0.04282991  0.31777179  0.74106605  1
  N  N16  6  0.17193889  0.76170984  0.98578751  1
  N  N17  6  0.17510882  0.42165532  0.89942488  1
  N  N18  6  0.17985786  0.50592500  0.64110829  1
  N  N19  6  0.23320941  0.49409533  0.52454122  1
  O  O20  6  -0.02690231  0.31597074  0.30315723  1
  O  O21  6  -0.02504335  0.19455858  0.58041699  1
  O  O22  6  0.04260076  0.45427373  0.23599116  1
  O  O23  6  0.06054842  0.20324472  0.79737641  1
  O  O24  6  0.12487044  0.78557239  1.05426936  1
  O  O25  6  0.15923097  0.68666342  0.98675501  1
  O  O26  6  0.19829129  0.70143195  0.58654059  1
  O  O27  6  0.21119462  0.48202956  0.36837285  1
