###############################################################################################
#
# CIF file generated by modified CIFWriter class 
# in pymatgen (v2025.03.10) https://pymatgen.org/
#
###############################################################################################
data_MACE-OFF23(L)_51dd85fb4164b76
_symmetry_space_group_name_H-M   P3_221
_cell_length_a   10.56767294
_cell_length_b   10.56767294
_cell_length_c   16.59050471
_cell_angle_alpha   90.00000000
_cell_angle_beta   90.00000000
_cell_angle_gamma   120.00000000
_symmetry_Int_Tables_number   154
_chemical_formula_moiety   'C4 H8 N8 O8'
_chemical_formula_sum   'H48 C24 N48 O48'
_cell_volume   1604.53412373
_cell_formula_units_Z   6
loop_
 _symmetry_equiv_pos_site_id
 _symmetry_equiv_pos_as_xyz
  1  'x, y, z'
  2  '-y, x-y, z+2/3'
  3  '-x+y, -x, z+1/3'
  4  'y, x, -z'
  5  'x-y, -y, -z+1/3'
  6  '-x, -x+y, -z+2/3'
loop_
 _atom_site_type_symbol
 _atom_site_label
 _atom_site_symmetry_multiplicity
 _atom_site_fract_x
 _atom_site_fract_y
 _atom_site_fract_z
 _atom_site_occupancy
  H  H0  6  -0.09104076  0.26881066  0.76413944  1
  H  H1  6  0.03815870  -0.08077216  0.41873179  1
  H  H2  6  0.04243431  0.39077958  0.43201948  1
  H  H3  6  0.07380303  0.30155504  0.71892013  1
  H  H4  6  0.08174207  0.19620194  0.61267104  1
  H  H5  6  0.10482891  0.63545661  0.62140805  1
  H  H6  6  0.17308332  0.41910851  0.50656108  1
  H  H7  6  0.19094658  0.52985787  0.61748476  1
  C  C8  6  -0.02720205  0.30295242  0.70930375  1
  C  C9  6  -0.02689693  0.15554321  0.58775817  1
  C  C10  6  0.05707115  0.37194143  0.49450788  1
  C  C11  6  0.08608542  0.52529390  0.61969767  1
  N  N12  6  -0.12371448  0.43744948  0.53243594  1
  N  N13  6  -0.10255394  0.19866201  0.64504999  1
  N  N14  6  -0.09799935  0.12233827  0.44680263  1
  N  N15  6  -0.05102497  0.51440440  0.73972367  1
  N  N16  6  -0.01352683  0.21551295  0.50768131  1
  N  N17  6  0.00814077  0.45113648  0.69217988  1
  N  N18  6  0.00836671  0.44749415  0.54759411  1
  N  N19  6  0.15964699  -0.24506068  0.37155158  1
  O  O20  6  -0.19969361  0.35136261  0.48132098  1
  O  O21  6  -0.15478245  0.51324847  0.57350926  1
  O  O22  6  -0.13621546  0.43956987  0.79215226  1
  O  O23  6  -0.11104091  0.17580058  0.38501213  1
  O  O24  6  -0.01191876  0.64226277  0.72842998  1
  O  O25  6  -0.00785383  -0.14814437  0.54223698  1
  O  O26  6  0.06736293  -0.30628897  0.42345263  1
  O  O27  6  0.22029418  -0.29740383  0.33415784  1
