###############################################################################################
#
# CIF file generated by modified CIFWriter class 
# in pymatgen (v2025.03.10) https://pymatgen.org/
#
###############################################################################################
data_MACE-OFF23(L)_52bebbaba5d0600
_symmetry_space_group_name_H-M   P6_2
_cell_length_a   14.57178400
_cell_length_b   14.57178400
_cell_length_c   9.93631170
_cell_angle_alpha   90.00000000
_cell_angle_beta   90.00000000
_cell_angle_gamma   120.00000000
_symmetry_Int_Tables_number   171
_chemical_formula_moiety   'C4 H8 N8 O8'
_chemical_formula_sum   'H48 C24 N48 O48'
_cell_volume   1827.17981394
_cell_formula_units_Z   6
loop_
 _symmetry_equiv_pos_site_id
 _symmetry_equiv_pos_as_xyz
  1  'x, y, z'
  2  'x-y, x, z+1/3'
  3  '-y, x-y, z+2/3'
  4  '-x, -y, z'
  5  '-x+y, -x, z+1/3'
  6  'y, -x+y, z+2/3'
loop_
 _atom_site_type_symbol
 _atom_site_label
 _atom_site_symmetry_multiplicity
 _atom_site_fract_x
 _atom_site_fract_y
 _atom_site_fract_z
 _atom_site_occupancy
  H  H0  6  -0.07623549  0.15237234  0.46693385  1
  H  H1  6  -0.04574771  0.40774811  0.26581383  1
  H  H2  6  -0.01672613  0.27835118  0.54747084  1
  H  H3  6  -0.00816553  0.41764755  0.43738103  1
  H  H4  6  0.07234048  0.76822617  0.88797581  1
  H  H5  6  0.14941216  0.35467609  0.60754579  1
  H  H6  6  0.15737498  0.50025840  0.49628458  1
  H  H7  6  0.25740828  0.56893141  0.37450427  1
  C  C8  6  -0.01633331  0.23523892  0.45837433  1
  C  C9  6  0.00004157  0.39135663  0.33764291  1
  C  C10  6  0.15259710  0.82129966  0.85437102  1
  C  C11  6  0.19373661  0.49196212  0.40484995  1
  N  N12  6  -0.13391853  0.21234894  0.27055279  1
  N  N13  6  -0.04111902  0.27814833  0.34194648  1
  N  N14  6  0.07018852  0.90334190  0.72442814  1
  N  N15  6  0.08754375  0.24636867  0.45465203  1
  N  N16  6  0.11079107  0.45152747  0.30421321  1
  N  N17  6  0.11412668  0.66153207  0.72715912  1
  N  N18  6  0.13840935  0.47282378  0.16814997  1
  N  N19  6  0.18710554  0.76274830  0.76984954  1
  O  O20  6  -0.15502470  0.25283725  0.17861393  1
  O  O21  6  -0.01264914  0.82133070  0.73962680  1
  O  O22  6  0.02146648  0.63009154  0.75100006  1
  O  O23  6  0.02200245  0.10616962  0.32304242  1
  O  O24  6  0.06849432  0.45525859  0.09052837  1
  O  O25  6  0.12059975  0.30434668  -0.02815570  1
  O  O26  6  0.14806715  0.61152181  0.66860886  1
  O  O27  6  0.23162370  0.50814307  0.14277256  1
