###############################################################################################
#
# CIF file generated by modified CIFWriter class 
# in pymatgen (v2025.03.10) https://pymatgen.org/
#
###############################################################################################
data_MACE-OFF23(L)_5ad939699b3602
_symmetry_space_group_name_H-M   P31c
_cell_length_a   13.34017562
_cell_length_b   13.34017562
_cell_length_c   12.44774575
_cell_angle_alpha   90.00000000
_cell_angle_beta   90.00000000
_cell_angle_gamma   120.00000000
_symmetry_Int_Tables_number   159
_chemical_formula_moiety   'C4 H8 N8 O8'
_chemical_formula_sum   'H48 C24 N48 O48'
_cell_volume   1918.42327526
_cell_formula_units_Z   6
loop_
 _symmetry_equiv_pos_site_id
 _symmetry_equiv_pos_as_xyz
  1  'x, y, z'
  2  '-y, x-y, z'
  3  '-x+y, -x, z'
  4  'y, x, z+1/2'
  5  'x-y, -y, z+1/2'
  6  '-x, -x+y, z+1/2'
loop_
 _atom_site_type_symbol
 _atom_site_label
 _atom_site_symmetry_multiplicity
 _atom_site_fract_x
 _atom_site_fract_y
 _atom_site_fract_z
 _atom_site_occupancy
  H  H0  6  -0.00935416  0.37581466  0.20930877  1
  H  H1  6  0.00789309  0.61417706  0.05098922  1
  H  H2  6  0.03853242  0.84083499  0.27408893  1
  H  H3  6  0.11459154  0.76466487  0.28089110  1
  H  H4  6  0.12480249  0.66518196  0.14324551  1
  H  H5  6  0.14392904  0.45149968  0.21251322  1
  H  H6  6  0.16185206  0.49218210  -0.06466460  1
  H  H7  6  0.22606267  0.54435786  0.06350589  1
  C  C8  6  0.06719726  0.37602761  0.18036070  1
  C  C9  6  0.08431912  0.69043249  0.08057660  1
  C  C10  6  0.10003809  0.82420986  0.23248259  1
  C  C11  6  0.18172277  0.46797634  0.01181030  1
  N  N12  6  -0.02852037  0.34640098  0.00768137  1
  N  N13  6  -0.02818316  0.19281141  0.27594851  1
  N  N14  6  -0.02328130  0.79113702  0.07608665  1
  N  N15  6  0.05305160  0.76749043  0.13134844  1
  N  N16  6  0.06686595  0.27408555  0.21930580  1
  N  N17  6  0.07502585  0.38804121  0.06471934  1
  N  N18  6  0.13585156  0.67928519  -0.10566537  1
  N  N19  6  0.16380603  0.74271361  -0.00892033  1
  O  O20  6  -0.11861856  0.19269256  0.26218349  1
  O  O21  6  -0.11668260  0.30278308  0.05937853  1
  O  O22  6  -0.06622815  0.73441507  -0.00418355  1
  O  O23  6  -0.03960262  0.86530790  0.11278047  1
  O  O24  6  -0.02103134  0.35748207  -0.08892746  1
  O  O25  6  -0.01585127  0.12722273  0.33403196  1
  O  O26  6  0.03413893  0.61175723  -0.12164109  1
  O  O27  6  0.21466667  0.69681424  -0.16444978  1
