###############################################################################################
#
# CIF file generated by modified CIFWriter class 
# in pymatgen (v2025.03.10) https://pymatgen.org/
#
###############################################################################################
data_MACE-OFF23(L)_5af6d011a98caf2
_symmetry_space_group_name_H-M   P6_5
_cell_length_a   7.24643052
_cell_length_b   7.24643052
_cell_length_c   39.37224389
_cell_angle_alpha   90.00000000
_cell_angle_beta   90.00000000
_cell_angle_gamma   120.00000000
_symmetry_Int_Tables_number   170
_chemical_formula_moiety   'C4 H8 N8 O8'
_chemical_formula_sum   'H48 C24 N48 O48'
_cell_volume   1790.47830475
_cell_formula_units_Z   6
loop_
 _symmetry_equiv_pos_site_id
 _symmetry_equiv_pos_as_xyz
  1  'x, y, z'
  2  'x-y, x, z+5/6'
  3  '-y, x-y, z+2/3'
  4  '-x, -y, z+1/2'
  5  '-x+y, -x, z+1/3'
  6  'y, -x+y, z+1/6'
loop_
 _atom_site_type_symbol
 _atom_site_label
 _atom_site_symmetry_multiplicity
 _atom_site_fract_x
 _atom_site_fract_y
 _atom_site_fract_z
 _atom_site_occupancy
  H  H0  6  -0.17655948  0.51097309  0.14971970  1
  H  H1  6  -0.04257219  0.71191404  0.19335826  1
  H  H2  6  0.01505566  -0.01968261  1.02994112  1
  H  H3  6  0.06437532  0.57250809  0.83410616  1
  H  H4  6  0.09613941  -0.33364880  0.95583017  1
  H  H5  6  0.13413082  0.51582330  0.12448751  1
  H  H6  6  0.22035974  0.63070071  0.08379593  1
  H  H7  6  0.26299903  0.69432420  0.17042839  1
  C  C8  6  -0.17329266  0.62392305  0.13120343  1
  C  C9  6  0.01833286  0.86563502  0.18107810  1
  C  C10  6  0.14267132  0.48357302  0.82756444  1
  C  C11  6  0.15818238  0.64643734  0.10792063  1
  N  N12  6  -0.14198589  0.56832079  0.07081480  1
  N  N13  6  -0.11229988  0.25742794  0.86985594  1
  N  N14  6  -0.08540236  0.82577852  0.14863919  1
  N  N15  6  -0.04520784  0.63484338  0.10213313  1
  N  N16  6  -0.01499191  0.43195931  0.77180577  1
  N  N17  6  0.01427917  -0.09121082  0.80000321  1
  N  N18  6  0.02666038  0.27606172  0.84395824  1
  N  N19  6  0.15917990  0.46949192  0.79133655  1
  O  O20  6  -0.20601734  0.35519073  0.86665734  1
  O  O21  6  -0.17110995  0.40438611  0.78719936  1
  O  O22  6  -0.13212206  0.14070799  0.89353348  1
  O  O23  6  -0.03172538  0.57100683  0.04726548  1
  O  O24  6  -0.02447257  1.15639485  0.14773865  1
  O  O25  6  0.00340556  0.42846854  0.74135749  1
  O  O26  6  0.05965052  -0.14237231  0.77343314  1
  O  O27  6  0.15664164  -0.32867953  0.90212044  1
