###############################################################################################
#
# CIF file generated by modified CIFWriter class 
# in pymatgen (v2025.03.10) https://pymatgen.org/
#
###############################################################################################
data_MACE-OFF23(L)_5af9b47fd9301d0
_symmetry_space_group_name_H-M   P6_4
_cell_length_a   12.07835392
_cell_length_b   12.07835392
_cell_length_c   14.08403300
_cell_angle_alpha   90.00000000
_cell_angle_beta   90.00000000
_cell_angle_gamma   120.00000000
_symmetry_Int_Tables_number   172
_chemical_formula_moiety   'C4 H8 N8 O8'
_chemical_formula_sum   'H48 C24 N48 O48'
_cell_volume   1779.39828508
_cell_formula_units_Z   6
loop_
 _symmetry_equiv_pos_site_id
 _symmetry_equiv_pos_as_xyz
  1  'x, y, z'
  2  'x-y, x, z+2/3'
  3  '-y, x-y, z+1/3'
  4  '-x, -y, z'
  5  '-x+y, -x, z+2/3'
  6  'y, -x+y, z+1/3'
loop_
 _atom_site_type_symbol
 _atom_site_label
 _atom_site_symmetry_multiplicity
 _atom_site_fract_x
 _atom_site_fract_y
 _atom_site_fract_z
 _atom_site_occupancy
  H  H0  6  -0.00826380  0.58207620  0.96446439  1
  H  H1  6  0.00120146  0.75902576  1.08268509  1
  H  H2  6  0.01415708  0.62705462  0.84314433  1
  H  H3  6  0.01529784  0.89445807  1.02369033  1
  H  H4  6  0.07392949  0.38653210  0.48756041  1
  H  H5  6  0.13713969  0.59567325  1.05212973  1
  H  H6  6  0.16305305  0.78437110  1.16450531  1
  H  H7  6  0.27949785  0.62294693  0.99568681  1
  C  C8  6  0.04350499  0.66059145  0.91501149  1
  C  C9  6  0.04742698  0.82536472  1.02444770  1
  C  C10  6  0.15515993  0.39461880  0.44916331  1
  C  C11  6  0.22217250  0.66561888  1.01435853  1
  N  N12  6  -0.03823081  0.79870710  0.86279025  1
  N  N13  6  0.01076222  0.75726858  0.93518978  1
  N  N14  6  0.01320193  0.27727368  0.32089347  1
  N  N15  6  0.11422591  0.29762717  0.37691800  1
  N  N16  6  0.17677723  0.69946984  0.93051394  1
  N  N17  6  0.21989164  0.48587156  0.20056359  1
  N  N18  6  0.22232011  0.61970497  0.45663872  1
  N  N19  6  0.22469553  0.52258292  0.40785467  1
  O  O20  6  -0.04437585  0.75563781  0.78407064  1
  O  O21  6  -0.03624520  0.34147189  0.33588124  1
  O  O22  6  -0.01469699  0.19878989  0.25830582  1
  O  O23  6  0.05321715  -0.07619445  0.55190492  1
  O  O24  6  0.14358600  0.59009416  0.51949895  1
  O  O25  6  0.18296475  0.41104313  0.13465224  1
  O  O26  6  0.18858063  0.56518249  0.21609489  1
  O  O27  6  0.27074106  0.57053532  0.76786381  1
