###############################################################################################
#
# CIF file generated by modified CIFWriter class 
# in pymatgen (v2025.03.10) https://pymatgen.org/
#
###############################################################################################
data_MACE-OFF23(L)_5d3fd98c34c769f
_symmetry_space_group_name_H-M   P-3
_cell_length_a   17.12723092
_cell_length_b   17.12723092
_cell_length_c   7.93803795
_cell_angle_alpha   90.00000000
_cell_angle_beta   90.00000000
_cell_angle_gamma   120.00000000
_symmetry_Int_Tables_number   147
_chemical_formula_moiety   'C4 H8 N8 O8'
_chemical_formula_sum   'H48 C24 N48 O48'
_cell_volume   2016.59232044
_cell_formula_units_Z   6
loop_
 _symmetry_equiv_pos_site_id
 _symmetry_equiv_pos_as_xyz
  1  'x, y, z'
  2  '-x, -y, -z'
  3  '-y, x-y, z'
  4  'y, -x+y, -z'
  5  '-x+y, -x, z'
  6  'x-y, x, -z'
loop_
 _atom_site_type_symbol
 _atom_site_label
 _atom_site_symmetry_multiplicity
 _atom_site_fract_x
 _atom_site_fract_y
 _atom_site_fract_z
 _atom_site_occupancy
  H  H0  6  0.06846956  0.76165400  1.07070148  1
  H  H1  6  0.07349445  0.38738146  0.72557415  1
  H  H2  6  0.07492304  0.23355758  0.78433489  1
  H  H3  6  0.07567201  0.86698286  0.62961182  1
  H  H4  6  0.12337040  0.44021822  0.53316862  1
  H  H5  6  0.13402320  0.29614116  1.01496330  1
  H  H6  6  0.14060962  0.45012103  0.95413773  1
  H  H7  6  0.24938838  0.54566050  0.95112038  1
  C  C8  6  0.12467125  0.79450231  0.98480903  1
  C  C9  6  0.12932664  0.86682372  0.70098982  1
  C  C10  6  0.13019461  0.40559770  0.64124933  1
  C  C11  6  0.21043752  0.47513950  0.91782587  1
  N  N12  6  0.05178638  0.70515926  0.73798289  1
  N  N13  6  0.09364160  0.78908108  0.81152178  1
  N  N14  6  0.12602782  0.32304398  0.58338664  1
  N  N15  6  0.12968248  0.30834842  0.41445060  1
  N  N16  6  0.14999615  0.68052672  1.11194850  1
  N  N17  6  0.18051759  0.75497759  1.00818986  1
  N  N18  6  0.21047462  0.46294944  0.73733045  1
  N  N19  6  0.22907509  0.71145976  0.64947035  1
  O  O20  6  0.02405548  0.64093542  0.83082340  1
  O  O21  6  0.04652455  0.70259187  0.58510215  1
  O  O22  6  0.08187989  0.65959777  1.19239481  1
  O  O23  6  0.11561935  0.88024243  0.37164311  1
  O  O24  6  0.13796463  0.36643097  0.31715966  1
  O  O25  6  0.19402238  0.64341102  1.11705048  1
  O  O26  6  0.21228512  0.64530724  0.73284173  1
  O  O27  6  0.22489514  0.71504979  0.49849150  1
