###############################################################################################
#
# CIF file generated by modified CIFWriter class 
# in pymatgen (v2025.03.10) https://pymatgen.org/
#
###############################################################################################
data_MACE-OFF23(L)_6403b0e84f35764
_symmetry_space_group_name_H-M   P6_5
_cell_length_a   7.82475960
_cell_length_b   7.82475960
_cell_length_c   33.84026211
_cell_angle_alpha   90.00000000
_cell_angle_beta   90.00000000
_cell_angle_gamma   120.00000000
_symmetry_Int_Tables_number   170
_chemical_formula_moiety   'C4 H8 N8 O8'
_chemical_formula_sum   'H48 C24 N48 O48'
_cell_volume   1794.34668653
_cell_formula_units_Z   6
loop_
 _symmetry_equiv_pos_site_id
 _symmetry_equiv_pos_as_xyz
  1  'x, y, z'
  2  'x-y, x, z+5/6'
  3  '-y, x-y, z+2/3'
  4  '-x, -y, z+1/2'
  5  '-x+y, -x, z+1/3'
  6  'y, -x+y, z+1/6'
loop_
 _atom_site_type_symbol
 _atom_site_label
 _atom_site_symmetry_multiplicity
 _atom_site_fract_x
 _atom_site_fract_y
 _atom_site_fract_z
 _atom_site_occupancy
  H  H0  6  -0.13675608  0.45410459  0.95821934  1
  H  H1  6  -0.10612224  0.39884770  0.26743850  1
  H  H2  6  0.00481026  0.90607052  0.31412110  1
  H  H3  6  0.06875374  0.50868303  0.30597175  1
  H  H4  6  0.08519299  0.54724020  0.98520679  1
  H  H5  6  0.13137448  0.78328931  0.33085214  1
  H  H6  6  0.14808844  0.51873469  0.57773603  1
  H  H7  6  0.23437137  0.59633234  0.62639437  1
  C  C8  6  0.00742578  0.46741295  0.95869027  1
  C  C9  6  0.03168665  0.52698931  0.27586769  1
  C  C10  6  0.10170623  0.85092877  0.30563884  1
  C  C11  6  0.27665833  0.61037504  0.59540634  1
  N  N12  6  -0.12669879  0.70341091  0.25070805  1
  N  N13  6  -0.01717865  0.27092701  0.95935198  1
  N  N14  6  0.00971490  0.69870592  0.27620674  1
  N  N15  6  0.04242373  0.54300602  0.88882565  1
  N  N16  6  0.11140839  0.31626366  0.13077065  1
  N  N17  6  0.12628964  0.58265756  0.92586704  1
  N  N18  6  0.14116501  0.38126495  0.22594847  1
  N  N19  6  0.18573886  0.54407722  0.24936625  1
  O  O20  6  -0.19969703  0.57374042  0.22629014  1
  O  O21  6  -0.12943266  0.41433439  0.88643957  1
  O  O22  6  -0.04995823  0.16936633  0.13353134  1
  O  O23  6  -0.03062664  0.26517438  0.21985250  1
  O  O24  6  0.00213050  -0.15996544  0.08860104  1
  O  O25  6  0.08875317  0.72038350  0.54618532  1
  O  O26  6  0.14302401  0.48479511  0.13170161  1
  O  O27  6  0.14827889  0.63769048  0.86171691  1
