###############################################################################################
#
# CIF file generated by modified CIFWriter class 
# in pymatgen (v2025.03.10) https://pymatgen.org/
#
###############################################################################################
data_MACE-OFF23(L)_67972b910daeaf4
_symmetry_space_group_name_H-M   P6_2
_cell_length_a   12.50873583
_cell_length_b   12.50873583
_cell_length_c   17.10012784
_cell_angle_alpha   90.00000000
_cell_angle_beta   90.00000000
_cell_angle_gamma   120.00000000
_symmetry_Int_Tables_number   171
_chemical_formula_moiety   'C4 H8 N8 O8'
_chemical_formula_sum   'H48 C24 N48 O48'
_cell_volume   2317.16430932
_cell_formula_units_Z   6
loop_
 _symmetry_equiv_pos_site_id
 _symmetry_equiv_pos_as_xyz
  1  'x, y, z'
  2  'x-y, x, z+1/3'
  3  '-y, x-y, z+2/3'
  4  '-x, -y, z'
  5  '-x+y, -x, z+1/3'
  6  'y, -x+y, z+2/3'
loop_
 _atom_site_type_symbol
 _atom_site_label
 _atom_site_symmetry_multiplicity
 _atom_site_fract_x
 _atom_site_fract_y
 _atom_site_fract_z
 _atom_site_occupancy
  H  H0  6  -0.02758443  0.68081954  0.16953055  1
  H  H1  6  -0.02126141  0.78454393  0.00583685  1
  H  H2  6  -0.01914419  0.85004586  0.14330970  1
  H  H3  6  -0.01690463  0.62283450  0.02893231  1
  H  H4  6  0.00619941  0.11125898  0.83920288  1
  H  H5  6  0.08370409  0.68191947  0.23372042  1
  H  H6  6  0.09357148  0.89427729  -0.05799343  1
  H  H7  6  0.10996247  0.60479111  0.00204768  1
  C  C8  6  0.06972794  0.71058941  0.17682075  1
  C  C9  6  0.07661987  0.85135539  -0.00111118  1
  C  C10  6  0.07981323  0.91147498  0.13887992  1
  C  C11  6  0.08183306  0.66002093  0.03561424  1
  N  N12  6  -0.06569885  0.08497015  0.70128115  1
  N  N13  6  0.05320739  0.16520407  0.72427210  1
  N  N14  6  0.09191625  0.34705975  0.86244172  1
  N  N15  6  0.10694551  0.65252387  0.11787744  1
  N  N16  6  0.13521534  0.84398903  0.17054563  1
  N  N17  6  0.14250692  0.78505174  0.00685422  1
  N  N18  6  0.15498748  0.57940240  0.14106961  1
  N  N19  6  0.17438211  0.42304292  0.62815791  1
  O  O20  6  -0.01921740  0.29018053  0.85295525  1
  O  O21  6  0.03271509  0.17517556  0.41884774  1
  O  O22  6  0.06976893  0.15649970  0.29813519  1
  O  O23  6  0.07446809  0.36213579  0.59767224  1
  O  O24  6  0.15164958  0.44807921  0.89207797  1
  O  O25  6  0.15845081  0.56279233  0.21043167  1
  O  O26  6  0.18781028  0.53470201  0.08972045  1
  O  O27  6  0.24094259  0.53343442  0.62555632  1
