###############################################################################################
#
# CIF file generated by modified CIFWriter class 
# in pymatgen (v2025.03.10) https://pymatgen.org/
#
###############################################################################################
data_MACE-OFF23(L)_695140e18004d45
_symmetry_space_group_name_H-M   P3_121
_cell_length_a   11.44060096
_cell_length_b   11.44060096
_cell_length_c   19.34615900
_cell_angle_alpha   90.00000000
_cell_angle_beta   90.00000000
_cell_angle_gamma   120.00000000
_symmetry_Int_Tables_number   152
_chemical_formula_moiety   'C4 H8 N8 O8'
_chemical_formula_sum   'H48 C24 N48 O48'
_cell_volume   2192.92137289
_cell_formula_units_Z   6
loop_
 _symmetry_equiv_pos_site_id
 _symmetry_equiv_pos_as_xyz
  1  'x, y, z'
  2  '-y, x-y, z+1/3'
  3  '-x+y, -x, z+2/3'
  4  'y, x, -z'
  5  'x-y, -y, -z+2/3'
  6  '-x, -x+y, -z+1/3'
loop_
 _atom_site_type_symbol
 _atom_site_label
 _atom_site_symmetry_multiplicity
 _atom_site_fract_x
 _atom_site_fract_y
 _atom_site_fract_z
 _atom_site_occupancy
  H  H0  6  -0.28482630  0.31078619  0.36982967  1
  H  H1  6  -0.15474295  0.48144297  0.37688360  1
  H  H2  6  -0.06145733  0.54523251  0.47274856  1
  H  H3  6  -0.05779627  0.43507362  0.53515234  1
  H  H4  6  0.02644578  0.56649649  0.29076344  1
  H  H5  6  0.04828408  0.44581502  0.24386800  1
  H  H6  6  0.12621934  0.65016736  0.38838678  1
  H  H7  6  0.26901416  0.63627266  0.40641685  1
  C  C8  6  -0.17687364  0.37763944  0.37335239  1
  C  C9  6  -0.03803198  0.46528373  0.48155541  1
  C  C10  6  0.02181075  0.46931767  0.29355396  1
  C  C11  6  0.16049441  0.58013279  0.40197698  1
  N  N12  6  -0.19352484  0.22519516  0.46425340  1
  N  N13  6  -0.19219682  0.27051236  0.26167521  1
  N  N14  6  -0.12468159  0.35360066  0.43680890  1
  N  N15  6  -0.11392745  0.36426082  0.31147323  1
  N  N16  6  0.10361898  0.51824574  0.46751134  1
  N  N17  6  0.11935104  0.48412654  0.34522778  1
  N  N18  6  0.15516196  0.38643178  0.34795010  1
  N  N19  6  0.18644837  0.51810292  0.51895216  1
  O  O20  6  -0.16760758  0.20995371  0.52319461  1
  O  O21  6  -0.13790532  0.27136740  0.20802913  1
  O  O22  6  0.11069213  0.30032925  0.30361439  1
  O  O23  6  0.13391718  0.44686655  0.56859741  1
  O  O24  6  0.13734806  -0.27390417  0.57357199  1
  O  O25  6  0.16451032  0.76864348  0.06108518  1
  O  O26  6  0.19399640  -0.30988400  0.72374895  1
  O  O27  6  0.28406054  0.69226780  0.17795064  1
