###############################################################################################
#
# CIF file generated by modified CIFWriter class 
# in pymatgen (v2025.03.10) https://pymatgen.org/
#
###############################################################################################
data_MACE-OFF23(L)_69af43609335ab
_symmetry_space_group_name_H-M   P6_2
_cell_length_a   16.23333783
_cell_length_b   16.23333783
_cell_length_c   8.34146075
_cell_angle_alpha   90.00000000
_cell_angle_beta   90.00000000
_cell_angle_gamma   120.00000000
_symmetry_Int_Tables_number   171
_chemical_formula_moiety   'C4 H8 N8 O8'
_chemical_formula_sum   'H48 C24 N48 O48'
_cell_volume   1903.65566853
_cell_formula_units_Z   6
loop_
 _symmetry_equiv_pos_site_id
 _symmetry_equiv_pos_as_xyz
  1  'x, y, z'
  2  'x-y, x, z+1/3'
  3  '-y, x-y, z+2/3'
  4  '-x, -y, z'
  5  '-x+y, -x, z+1/3'
  6  'y, -x+y, z+2/3'
loop_
 _atom_site_type_symbol
 _atom_site_label
 _atom_site_symmetry_multiplicity
 _atom_site_fract_x
 _atom_site_fract_y
 _atom_site_fract_z
 _atom_site_occupancy
  H  H0  6  -0.04494352  0.54058484  0.59830051  1
  H  H1  6  -0.03750773  0.78892995  0.71133146  1
  H  H2  6  0.04941553  0.62585062  0.71816176  1
  H  H3  6  0.05451516  0.76966118  0.77904279  1
  H  H4  6  0.06580561  0.28372881  0.18864825  1
  H  H5  6  0.14926246  0.34293705  0.34525135  1
  H  H6  6  0.19372481  0.70747705  0.62084323  1
  H  H7  6  0.21755801  0.68812660  0.42130217  1
  C  C8  6  0.00857077  0.61484373  0.60855279  1
  C  C9  6  0.01215520  0.76634705  0.67557309  1
  C  C10  6  0.13984196  0.31627770  0.22317829  1
  C  C11  6  0.17670088  0.70961328  0.49495800  1
  N  N12  6  -0.13838638  0.61903481  0.63328613  1
  N  N13  6  -0.04027341  0.66891243  0.61827050  1
  N  N14  6  0.04083142  0.61452368  0.32410056  1
  N  N15  6  0.04559029  0.87713726  0.45685586  1
  N  N16  6  0.07605729  0.64215561  0.47878059  1
  N  N17  6  0.07640469  0.82881909  0.55446938  1
  N  N18  6  0.14578604  0.41884738  0.00500605  1
  N  N19  6  0.19424284  0.39612570  0.11765067  1
  O  O20  6  -0.17975157  0.53712840  0.58803896  1
  O  O21  6  -0.04504837  0.56380530  0.31291605  1
  O  O22  6  -0.03865791  0.85094558  0.46318494  1
  O  O23  6  0.06099229  0.16482999  0.03863349  1
  O  O24  6  0.06379912  0.35817732  -0.02180606  1
  O  O25  6  0.09769046  0.64236406  0.21718881  1
  O  O26  6  0.16198005  -0.17625634  1.01926036  1
  O  O27  6  0.18824269  0.49573980  -0.05873869  1
