###############################################################################################
#
# CIF file generated by modified CIFWriter class 
# in pymatgen (v2025.03.10) https://pymatgen.org/
#
###############################################################################################
data_MACE-OFF23(L)_69d277fa2c8fcc7
_symmetry_space_group_name_H-M   P6_4
_cell_length_a   19.24971294
_cell_length_b   19.24971294
_cell_length_c   6.41339822
_cell_angle_alpha   90.00000000
_cell_angle_beta   90.00000000
_cell_angle_gamma   120.00000000
_symmetry_Int_Tables_number   172
_chemical_formula_moiety   'C4 H8 N8 O8'
_chemical_formula_sum   'H48 C24 N48 O48'
_cell_volume   2058.10417398
_cell_formula_units_Z   6
loop_
 _symmetry_equiv_pos_site_id
 _symmetry_equiv_pos_as_xyz
  1  'x, y, z'
  2  'x-y, x, z+2/3'
  3  '-y, x-y, z+1/3'
  4  '-x, -y, z'
  5  '-x+y, -x, z+2/3'
  6  'y, -x+y, z+1/3'
loop_
 _atom_site_type_symbol
 _atom_site_label
 _atom_site_symmetry_multiplicity
 _atom_site_fract_x
 _atom_site_fract_y
 _atom_site_fract_z
 _atom_site_occupancy
  H  H0  6  0.03189185  0.46911002  0.30613382  1
  H  H1  6  0.13503102  0.51986138  0.36663728  1
  H  H2  6  0.13642859  0.33157552  0.41092601  1
  H  H3  6  0.15559220  0.70340390  0.64644357  1
  H  H4  6  0.19101025  0.58988405  -0.12153226  1
  H  H5  6  0.19873019  0.43636522  0.43454951  1
  H  H6  6  0.21761524  0.71445614  0.86402809  1
  H  H7  6  0.22177549  0.58601890  0.13658726  1
  C  C8  6  0.08837050  0.47203391  0.27385314  1
  C  C9  6  0.15239394  0.38864463  0.34053559  1
  C  C10  6  0.19212659  0.55096549  -0.00185021  1
  C  C11  6  0.21092191  0.74382651  0.72624091  1
  N  N12  6  0.01717370  0.34661863  0.46101507  1
  N  N13  6  0.05359913  0.46026606  -0.09088307  1
  N  N14  6  0.08046384  0.39523335  0.32953896  1
  N  N15  6  0.11177904  0.49300660  0.06043607  1
  N  N16  6  0.15208244  0.32840944  0.00884995  1
  N  N17  6  0.18692996  0.39586511  0.13653731  1
  N  N18  6  0.23560465  0.51322741  -0.08215917  1
  N  N19  6  0.26347663  0.72120526  0.40357301  1
  O  O20  6  -0.04309440  0.35116136  0.44306488  1
  O  O21  6  -0.01423518  0.41405159  -0.03362207  1
  O  O22  6  0.02637291  0.30301290  0.58048602  1
  O  O23  6  0.07557179  0.48080885  -0.26818692  1
  O  O24  6  0.09817448  0.26801824  0.08474466  1
  O  O25  6  0.15865375  0.82129752  0.50122796  1
  O  O26  6  0.19434892  0.67713687  0.35284165  1
  O  O27  6  0.26917038  0.59087594  -0.36268427  1
