###############################################################################################
#
# CIF file generated by modified CIFWriter class 
# in pymatgen (v2025.03.10) https://pymatgen.org/
#
###############################################################################################
data_MACE-OFF23(L)_6a97fedcb583952
_symmetry_space_group_name_H-M   P6_3
_cell_length_a   14.16237228
_cell_length_b   14.16237228
_cell_length_c   10.85012702
_cell_angle_alpha   90.00000000
_cell_angle_beta   90.00000000
_cell_angle_gamma   120.00000000
_symmetry_Int_Tables_number   173
_chemical_formula_moiety   'C4 H8 N8 O8'
_chemical_formula_sum   'H48 C24 N48 O48'
_cell_volume   1884.67932600
_cell_formula_units_Z   6
loop_
 _symmetry_equiv_pos_site_id
 _symmetry_equiv_pos_as_xyz
  1  'x, y, z'
  2  'x-y, x, z+1/2'
  3  '-y, x-y, z'
  4  '-x, -y, z+1/2'
  5  '-x+y, -x, z'
  6  'y, -x+y, z+1/2'
loop_
 _atom_site_type_symbol
 _atom_site_label
 _atom_site_symmetry_multiplicity
 _atom_site_fract_x
 _atom_site_fract_y
 _atom_site_fract_z
 _atom_site_occupancy
  H  H0  6  -0.17695211  0.52505726  0.80652076  1
  H  H1  6  -0.08222051  0.54674428  0.68714820  1
  H  H2  6  -0.04713664  0.79623507  0.61276222  1
  H  H3  6  -0.02184947  0.68888750  0.57740643  1
  H  H4  6  0.09054585  0.56811579  0.74410655  1
  H  H5  6  0.12694852  0.58175726  0.90194334  1
  H  H6  6  0.14630045  0.70473353  0.62262388  1
  H  H7  6  0.16823292  0.42222080  0.67186806  1
  C  C8  6  -0.09415035  0.57636915  0.77491478  1
  C  C9  6  -0.01279461  0.74806216  0.64711140  1
  C  C10  6  0.09119255  0.60716579  0.83073983  1
  C  C11  6  0.17009561  0.77102116  0.68826224  1
  N  N12  6  -0.12565416  0.72566451  0.82498260  1
  N  N13  6  -0.07193419  0.68620130  0.75355317  1
  N  N14  6  -0.06058734  0.51826064  0.97466191  1
  N  N15  6  -0.02065380  0.57125690  0.86422752  1
  N  N16  6  0.07711581  0.22799804  0.61657698  1
  N  N17  6  0.10287555  0.82072344  0.67204887  1
  N  N18  6  0.15745683  0.72270493  0.80867364  1
  N  N19  6  0.20936534  0.42350311  0.90558007  1
  O  O20  6  -0.15797376  0.47588970  0.99262615  1
  O  O21  6  0.00451826  0.51608983  1.04574048  1
  O  O22  6  0.02711631  0.27724069  0.60738976  1
  O  O23  6  0.04420025  0.13562625  0.58286880  1
  O  O24  6  0.07870203  -0.10229734  0.30913143  1
  O  O25  6  0.11410658  0.38972939  0.87966768  1
  O  O26  6  0.14663314  -0.19114016  0.39881508  1
  O  O27  6  0.19898544  0.75033286  1.00690652  1
