###############################################################################################
#
# CIF file generated by modified CIFWriter class 
# in pymatgen (v2025.03.10) https://pymatgen.org/
#
###############################################################################################
data_MACE-OFF23(L)_6febefd2ec32824
_symmetry_space_group_name_H-M   P6_1
_cell_length_a   13.54896655
_cell_length_b   13.54896655
_cell_length_c   12.68641098
_cell_angle_alpha   90.00000000
_cell_angle_beta   90.00000000
_cell_angle_gamma   120.00000000
_symmetry_Int_Tables_number   169
_chemical_formula_moiety   'C4 H8 N8 O8'
_chemical_formula_sum   'H48 C24 N48 O48'
_cell_volume   2016.88784724
_cell_formula_units_Z   6
loop_
 _symmetry_equiv_pos_site_id
 _symmetry_equiv_pos_as_xyz
  1  'x, y, z'
  2  'x-y, x, z+1/6'
  3  '-y, x-y, z+1/3'
  4  '-x, -y, z+1/2'
  5  '-x+y, -x, z+2/3'
  6  'y, -x+y, z+5/6'
loop_
 _atom_site_type_symbol
 _atom_site_label
 _atom_site_symmetry_multiplicity
 _atom_site_fract_x
 _atom_site_fract_y
 _atom_site_fract_z
 _atom_site_occupancy
  H  H0  6  -0.06153059  0.30187091  0.43845191  1
  H  H1  6  0.06574523  0.63007084  0.45760821  1
  H  H2  6  0.08541839  0.39122323  0.41353895  1
  H  H3  6  0.14277457  0.56775128  0.40586132  1
  H  H4  6  0.14628100  0.31821743  0.68278105  1
  H  H5  6  0.17328001  0.77962999  0.23518437  1
  H  H6  6  0.27397852  0.70188730  0.22263176  1
  H  H7  6  0.30453239  0.65187875  0.66858416  1
  C  C8  6  0.01884578  0.36401601  0.47284270  1
  C  C9  6  0.10432566  0.57916611  0.47681932  1
  C  C10  6  0.14824382  0.37301633  0.61972211  1
  C  C11  6  0.24811366  0.58991933  0.61158221  1
  N  N12  6  -0.05890484  0.45316914  0.58232100  1
  N  N13  6  -0.03353089  0.20066921  0.58672077  1
  N  N14  6  0.01745921  0.46563762  0.50592647  1
  N  N15  6  0.04329290  0.31202070  0.56073027  1
  N  N16  6  0.11250522  0.48313766  0.74986129  1
  N  N17  6  0.17079040  0.48209731  0.66120919  1
  N  N18  6  0.19103444  0.64059190  0.55554100  1
  N  N19  6  0.20486102  0.74415847  0.58944971  1
  O  O20  6  -0.13879707  0.35689095  0.59514084  1
  O  O21  6  -0.11406838  0.14886085  0.52766660  1
  O  O22  6  -0.04090361  0.53635237  0.63208221  1
  O  O23  6  -0.01502739  0.16246689  0.66560600  1
  O  O24  6  0.03106467  0.39315106  0.77565538  1
  O  O25  6  0.14630392  0.57421119  0.79305765  1
  O  O26  6  0.15177673  0.78084328  0.54265840  1
  O  O27  6  0.20766571  0.48067267  0.99218567  1
