###############################################################################################
#
# CIF file generated by modified CIFWriter class 
# in pymatgen (v2025.03.10) https://pymatgen.org/
#
###############################################################################################
data_MACE-OFF23(L)_719ec9653032ca1
_symmetry_space_group_name_H-M   P6_3
_cell_length_a   13.54650429
_cell_length_b   13.54650429
_cell_length_c   12.45149910
_cell_angle_alpha   90.00000000
_cell_angle_beta   90.00000000
_cell_angle_gamma   120.00000000
_symmetry_Int_Tables_number   173
_chemical_formula_moiety   'C4 H8 N8 O8'
_chemical_formula_sum   'H48 C24 N48 O48'
_cell_volume   1978.82209691
_cell_formula_units_Z   6
loop_
 _symmetry_equiv_pos_site_id
 _symmetry_equiv_pos_as_xyz
  1  'x, y, z'
  2  'x-y, x, z+1/2'
  3  '-y, x-y, z'
  4  '-x, -y, z+1/2'
  5  '-x+y, -x, z'
  6  'y, -x+y, z+1/2'
loop_
 _atom_site_type_symbol
 _atom_site_label
 _atom_site_symmetry_multiplicity
 _atom_site_fract_x
 _atom_site_fract_y
 _atom_site_fract_z
 _atom_site_occupancy
  H  H0  6  0.07918989  0.80772931  0.73072495  1
  H  H1  6  0.08267644  0.52686531  0.78476141  1
  H  H2  6  0.09636629  0.58265814  1.11300418  1
  H  H3  6  0.11419530  0.26436318  1.05185733  1
  H  H4  6  0.16410467  0.39518321  0.98381384  1
  H  H5  6  0.19234193  0.39229869  0.78194228  1
  H  H6  6  0.19611531  0.65719575  0.83321254  1
  H  H7  6  0.21258850  0.68165514  1.03580663  1
  C  C8  6  0.10504941  0.59656433  0.83998095  1
  C  C9  6  0.11148423  0.78290202  0.79865253  1
  C  C10  6  0.11987986  0.63050210  1.03893057  1
  C  C11  6  0.14586186  0.82363572  0.99477525  1
  N  N12  6  -0.05848025  0.59972139  0.76656721  1
  N  N13  6  -0.01956762  0.68441313  1.09195120  1
  N  N14  6  0.00689135  0.43665880  0.96536222  1
  N  N15  6  0.04904541  0.66017357  0.81084366  1
  N  N16  6  0.05090989  0.16908979  0.87766932  1
  N  N17  6  0.07833705  0.70945132  1.03618858  1
  N  N18  6  0.08391916  0.55226871  0.94858324  1
  N  N19  6  0.10206253  0.83945768  0.89421749  1
  O  O20  6  -0.10472014  0.49636443  0.77428898  1
  O  O21  6  -0.09912440  0.65219487  0.72600077  1
  O  O22  6  -0.06924212  0.59159164  1.13597325  1
  O  O23  6  -0.04842607  0.75494576  1.08921126  1
  O  O24  6  -0.02767433  0.40811614  1.05615391  1
  O  O25  6  -0.01411561  0.37389368  0.88934277  1
  O  O26  6  -0.00704207  0.12599337  0.95645663  1
  O  O27  6  0.02434294  0.13848047  0.78581983  1
