###############################################################################################
#
# CIF file generated by modified CIFWriter class 
# in pymatgen (v2025.03.10) https://pymatgen.org/
#
###############################################################################################
data_MACE-OFF23(L)_721dea3f63f23d0
_symmetry_space_group_name_H-M   P-3
_cell_length_a   17.64721081
_cell_length_b   17.64721081
_cell_length_c   6.91894776
_cell_angle_alpha   90.00000000
_cell_angle_beta   90.00000000
_cell_angle_gamma   120.00000000
_symmetry_Int_Tables_number   147
_chemical_formula_moiety   'C4 H8 N8 O8'
_chemical_formula_sum   'H48 C24 N48 O48'
_cell_volume   1866.04808481
_cell_formula_units_Z   6
loop_
 _symmetry_equiv_pos_site_id
 _symmetry_equiv_pos_as_xyz
  1  'x, y, z'
  2  '-x, -y, -z'
  3  '-y, x-y, z'
  4  'y, -x+y, -z'
  5  '-x+y, -x, z'
  6  'x-y, x, -z'
loop_
 _atom_site_type_symbol
 _atom_site_label
 _atom_site_symmetry_multiplicity
 _atom_site_fract_x
 _atom_site_fract_y
 _atom_site_fract_z
 _atom_site_occupancy
  H  H0  6  -0.10767219  0.24207037  0.63194776  1
  H  H1  6  -0.10019946  0.20039351  0.85918376  1
  H  H2  6  -0.07413125  0.37461217  0.60751124  1
  H  H3  6  -0.03547155  0.44493759  0.81010394  1
  H  H4  6  0.02351976  0.26824716  0.38716920  1
  H  H5  6  0.05725506  0.39908284  0.36029865  1
  H  H6  6  0.09722108  0.23949214  0.48653151  1
  H  H7  6  0.16094753  0.48400184  0.43387289  1
  C  C8  6  -0.06301026  0.24526411  0.74433987  1
  C  C9  6  -0.02140819  0.40579995  0.71211699  1
  C  C10  6  0.05826695  0.26963755  0.51791516  1
  C  C11  6  0.09990756  0.42933617  0.48351981  1
  N  N12  6  -0.02001582  0.33500354  0.81334953  1
  N  N13  6  -0.00353464  0.21955574  0.66705766  1
  N  N14  6  0.00000568  0.14963206  0.75501628  1
  N  N15  6  0.03236976  0.35535741  0.97170238  1
  N  N16  6  0.05946761  0.46354937  0.61267588  1
  N  N17  6  0.10592981  0.55059537  0.66578770  1
  N  N18  6  0.11389747  0.36173230  0.56455707  1
  N  N19  6  0.17748450  0.38581029  0.70392763  1
  O  O20  6  -0.05994150  0.10535853  0.86288406  1
  O  O21  6  0.03620110  0.29554699  1.04855322  1
  O  O22  6  0.05951141  0.13872188  0.70878411  1
  O  O23  6  0.07153553  0.57594226  0.78156150  1
  O  O24  6  0.07323106  0.43187042  1.01840916  1
  O  O25  6  0.13907587  0.81086132  0.76769676  1
  O  O26  6  0.17466280  0.59671884  0.58415962  1
  O  O27  6  0.21513448  0.46181067  0.75238440  1
