###############################################################################################
#
# CIF file generated by modified CIFWriter class 
# in pymatgen (v2025.03.10) https://pymatgen.org/
#
###############################################################################################
data_MACE-OFF23(L)_7778d4931594fdf
_symmetry_space_group_name_H-M   P3_121
_cell_length_a   10.21863357
_cell_length_b   10.21863357
_cell_length_c   18.41583737
_cell_angle_alpha   90.00000000
_cell_angle_beta   90.00000000
_cell_angle_gamma   120.00000000
_symmetry_Int_Tables_number   152
_chemical_formula_moiety   'C4 H8 N8 O8'
_chemical_formula_sum   'H48 C24 N48 O48'
_cell_volume   1665.35856444
_cell_formula_units_Z   6
loop_
 _symmetry_equiv_pos_site_id
 _symmetry_equiv_pos_as_xyz
  1  'x, y, z'
  2  '-y, x-y, z+1/3'
  3  '-x+y, -x, z+2/3'
  4  'y, x, -z'
  5  'x-y, -y, -z+2/3'
  6  '-x, -x+y, -z+1/3'
loop_
 _atom_site_type_symbol
 _atom_site_label
 _atom_site_symmetry_multiplicity
 _atom_site_fract_x
 _atom_site_fract_y
 _atom_site_fract_z
 _atom_site_occupancy
  H  H0  6  0.04713767  0.46841167  1.00056316  1
  H  H1  6  0.08135728  0.87787090  0.97011424  1
  H  H2  6  0.11148512  0.35300571  0.10420266  1
  H  H3  6  0.14900810  0.38719638  0.28961466  1
  H  H4  6  0.15363922  0.47470888  0.18010706  1
  H  H5  6  0.17008232  0.46337870  0.79619775  1
  H  H6  6  0.21616015  0.61944437  0.96605841  1
  H  H7  6  0.28797511  0.60672302  0.85880105  1
  C  C8  6  0.09416480  0.55577418  0.95975943  1
  C  C9  6  0.12008424  0.80922857  0.94311458  1
  C  C10  6  0.17905390  0.55219103  0.83146328  1
  C  C11  6  0.18728657  0.40515816  0.14956508  1
  N  N12  6  -0.07786767  0.38321589  0.86948057  1
  N  N13  6  -0.05819812  0.63084396  1.03045996  1
  N  N14  6  -0.01007330  0.82707088  0.83657787  1
  N  N15  6  0.03177816  0.65466382  0.96926700  1
  N  N16  6  0.06799625  0.48923944  0.88846853  1
  N  N17  6  0.11444119  0.82343841  0.86556064  1
  N  N18  6  0.16008247  0.64378273  0.71241992  1
  N  N19  6  0.16512690  0.66186696  0.78736373  1
  O  O20  6  -0.17028626  0.33316034  0.91854770  1
  O  O21  6  -0.10162021  0.34956392  0.80617996  1
  O  O22  6  -0.09608387  0.51525091  1.06484059  1
  O  O23  6  -0.09357436  0.72409273  1.04337931  1
  O  O24  6  -0.01078511  0.84152793  0.77135933  1
  O  O25  6  0.07971405  0.18446364  0.78734779  1
  O  O26  6  0.15591599  0.74076658  0.67617969  1
  O  O27  6  0.15813789  0.53228399  0.68848153  1
