###############################################################################################
#
# CIF file generated by modified CIFWriter class 
# in pymatgen (v2025.03.10) https://pymatgen.org/
#
###############################################################################################
data_MACE-OFF23(L)_77dc9363d79f7a1
_symmetry_space_group_name_H-M   P6_4
_cell_length_a   16.45207203
_cell_length_b   16.45207203
_cell_length_c   8.62063420
_cell_angle_alpha   90.00000000
_cell_angle_beta   90.00000000
_cell_angle_gamma   120.00000000
_symmetry_Int_Tables_number   172
_chemical_formula_moiety   'C4 H8 N8 O8'
_chemical_formula_sum   'H48 C24 N48 O48'
_cell_volume   2020.74286293
_cell_formula_units_Z   6
loop_
 _symmetry_equiv_pos_site_id
 _symmetry_equiv_pos_as_xyz
  1  'x, y, z'
  2  'x-y, x, z+2/3'
  3  '-y, x-y, z+1/3'
  4  '-x, -y, z'
  5  '-x+y, -x, z+2/3'
  6  'y, -x+y, z+1/3'
loop_
 _atom_site_type_symbol
 _atom_site_label
 _atom_site_symmetry_multiplicity
 _atom_site_fract_x
 _atom_site_fract_y
 _atom_site_fract_z
 _atom_site_occupancy
  H  H0  6  0.00885381  0.67649144  0.98219651  1
  H  H1  6  0.01153487  0.68322219  0.77692232  1
  H  H2  6  0.05668139  0.59466870  1.10936620  1
  H  H3  6  0.08506132  0.51859090  1.00818753  1
  H  H4  6  0.09625658  0.29157810  0.37270775  1
  H  H5  6  0.11466849  0.79596318  1.12966215  1
  H  H6  6  0.16648405  0.71270516  1.24875205  1
  H  H7  6  0.25641427  0.54231909  0.57450953  1
  C  C8  6  0.05290755  0.69244766  0.87990819  1
  C  C9  6  0.10255672  0.59081776  1.02213217  1
  C  C10  6  0.16842759  0.82884396  1.04057843  1
  C  C11  6  0.22498748  0.72792562  1.17193702  1
  N  N12  6  0.08547472  0.62559053  0.87995047  1
  N  N13  6  0.09702883  0.59122917  0.73882743  1
  N  N14  6  0.12516861  0.79005062  0.89239571  1
  N  N15  6  0.13380787  0.46507551  0.35794291  1
  N  N16  6  0.14104822  0.84984114  0.76820206  1
  N  N17  6  0.19030049  0.43266790  0.41745375  1
  N  N18  6  0.19802033  0.64451910  1.07874167  1
  N  N19  6  0.25080578  0.60101284  1.08887609  1
  O  O20  6  0.06338335  0.40875171  0.29002300  1
  O  O21  6  0.06660860  0.25835822  0.12552455  1
  O  O22  6  0.08770653  0.62624794  0.62310093  1
  O  O23  6  0.10312337  0.81491976  0.64693321  1
  O  O24  6  0.11494537  0.52790651  0.74663131  1
  O  O25  6  0.15899259  0.54714809  0.37753703  1
  O  O26  6  0.21618499  0.52013047  1.04546117  1
  O  O27  6  0.31711382  0.67019497  0.80609021  1
