###############################################################################################
#
# CIF file generated by modified CIFWriter class 
# in pymatgen (v2025.03.10) https://pymatgen.org/
#
###############################################################################################
data_MACE-OFF23(L)_7cd07f1e3f55f65
_symmetry_space_group_name_H-M   P3_121
_cell_length_a   15.18881087
_cell_length_b   15.18881087
_cell_length_c   9.28957374
_cell_angle_alpha   90.00000000
_cell_angle_beta   90.00000000
_cell_angle_gamma   120.00000000
_symmetry_Int_Tables_number   152
_chemical_formula_moiety   'C4 H8 N8 O8'
_chemical_formula_sum   'H48 C24 N48 O48'
_cell_volume   1855.98288598
_cell_formula_units_Z   6
loop_
 _symmetry_equiv_pos_site_id
 _symmetry_equiv_pos_as_xyz
  1  'x, y, z'
  2  '-y, x-y, z+1/3'
  3  '-x+y, -x, z+2/3'
  4  'y, x, -z'
  5  'x-y, -y, -z+2/3'
  6  '-x, -x+y, -z+1/3'
loop_
 _atom_site_type_symbol
 _atom_site_label
 _atom_site_symmetry_multiplicity
 _atom_site_fract_x
 _atom_site_fract_y
 _atom_site_fract_z
 _atom_site_occupancy
  H  H0  6  -0.03660357  0.57000854  0.35181912  1
  H  H1  6  -0.00254825  0.84860519  0.37145993  1
  H  H2  6  0.03871182  0.33833270  0.79009191  1
  H  H3  6  0.05971440  0.67351529  0.25202704  1
  H  H4  6  0.07271096  0.81963797  0.25656024  1
  H  H5  6  0.12016357  0.36275421  0.64079338  1
  H  H6  6  0.22603605  0.73294983  0.30245918  1
  H  H7  6  0.26272264  0.68501255  0.44933647  1
  C  C8  6  0.03014311  0.64480948  0.35907074  1
  C  C9  6  0.05111870  0.82139943  0.36774455  1
  C  C10  6  0.11034317  0.34658567  0.75555408  1
  C  C11  6  0.21437460  0.71483153  0.41660611  1
  N  N12  6  -0.06375287  0.68694776  0.53045270  1
  N  N13  6  0.00345213  0.71699409  0.41680893  1
  N  N14  6  0.03020749  0.17498312  0.85577704  1
  N  N15  6  0.08416695  0.54950493  0.50984907  1
  N  N16  6  0.10847560  0.25134672  0.77708011  1
  N  N17  6  0.10864931  0.63705504  0.43482481  1
  N  N18  6  0.17208091  0.46701089  0.95433237  1
  N  N19  6  0.19246148  0.43379438  0.82549814  1
  O  O20  6  -0.09359067  0.60204559  0.57799057  1
  O  O21  6  -0.08691033  0.74724304  0.57539894  1
  O  O22  6  -0.03681923  0.19061823  0.89826261  1
  O  O23  6  -0.00387080  0.48217466  0.50935860  1
  O  O24  6  0.03206459  0.09755932  0.87420432  1
  O  O25  6  0.09594522  0.40707325  1.01690337  1
  O  O26  6  0.15345202  0.54597175  0.56911999  1
  O  O27  6  0.23300219  0.55258268  0.99200333  1
