###############################################################################################
#
# CIF file generated by modified CIFWriter class 
# in pymatgen (v2025.03.10) https://pymatgen.org/
#
###############################################################################################
data_MACE-OFF23(L)_7ff217c351720fa
_symmetry_space_group_name_H-M   P6_2
_cell_length_a   17.03519490
_cell_length_b   17.03519490
_cell_length_c   7.11142631
_cell_angle_alpha   90.00000000
_cell_angle_beta   90.00000000
_cell_angle_gamma   120.00000000
_symmetry_Int_Tables_number   171
_chemical_formula_moiety   'C4 H8 N8 O8'
_chemical_formula_sum   'H48 C24 N48 O48'
_cell_volume   1787.23458274
_cell_formula_units_Z   6
loop_
 _symmetry_equiv_pos_site_id
 _symmetry_equiv_pos_as_xyz
  1  'x, y, z'
  2  'x-y, x, z+1/3'
  3  '-y, x-y, z+2/3'
  4  '-x, -y, z'
  5  '-x+y, -x, z+1/3'
  6  'y, -x+y, z+2/3'
loop_
 _atom_site_type_symbol
 _atom_site_label
 _atom_site_symmetry_multiplicity
 _atom_site_fract_x
 _atom_site_fract_y
 _atom_site_fract_z
 _atom_site_occupancy
  H  H0  6  0.03026766  0.28305767  0.39405637  1
  H  H1  6  0.04562682  0.21878488  0.21839481  1
  H  H2  6  0.05225042  0.41615766  0.34826646  1
  H  H3  6  0.06321025  0.45224200  0.11060385  1
  H  H4  6  0.08863385  0.74184808  0.92238201  1
  H  H5  6  0.17053475  0.37253063  0.61816547  1
  H  H6  6  0.19879470  0.50435565  0.54967773  1
  H  H7  6  0.28409617  0.70297571  0.75973340  1
  C  C8  6  0.07868464  0.28137854  0.29748415  1
  C  C9  6  0.09498465  0.43571972  0.22351717  1
  C  C10  6  0.14996766  0.78911325  0.84904787  1
  C  C11  6  0.23605737  0.51561886  0.41884064  1
  N  N12  6  0.04301810  0.82834115  0.70909658  1
  N  N13  6  0.10477974  0.35830528  0.17510983  1
  N  N14  6  0.12804424  0.67277627  0.62756484  1
  N  N15  6  0.13117186  0.84831586  0.73672178  1
  N  N16  6  0.15682993  0.36803804  0.02052787  1
  N  N17  6  0.18199625  0.51485498  0.26051218  1
  N  N18  6  0.18614490  0.74251334  0.74029398  1
  N  N19  6  0.20511228  0.59458324  0.16713287  1
  O  O20  6  -0.01493356  0.76731290  0.80355899  1
  O  O21  6  0.02956232  0.87399561  0.59764331  1
  O  O22  6  0.04955755  0.65552269  0.62499469  1
  O  O23  6  0.13006876  0.81217605  0.34169010  1
  O  O24  6  0.15385678  0.59221093  0.04617420  1
  O  O25  6  0.15929749  0.63518888  0.53520917  1
  O  O26  6  0.16850573  0.42722389  -0.08910850  1
  O  O27  6  0.27445496  0.66165626  0.21519180  1
