###############################################################################################
#
# CIF file generated by modified CIFWriter class 
# in pymatgen (v2025.03.10) https://pymatgen.org/
#
###############################################################################################
data_MACE-OFF23(L)_811faf0dbffdd18
_symmetry_space_group_name_H-M   P6_2
_cell_length_a   15.19385500
_cell_length_b   15.19385500
_cell_length_c   9.04413204
_cell_angle_alpha   90.00000000
_cell_angle_beta   90.00000000
_cell_angle_gamma   120.00000000
_symmetry_Int_Tables_number   171
_chemical_formula_moiety   'C4 H8 N8 O8'
_chemical_formula_sum   'H48 C24 N48 O48'
_cell_volume   1808.14594249
_cell_formula_units_Z   6
loop_
 _symmetry_equiv_pos_site_id
 _symmetry_equiv_pos_as_xyz
  1  'x, y, z'
  2  'x-y, x, z+1/3'
  3  '-y, x-y, z+2/3'
  4  '-x, -y, z'
  5  '-x+y, -x, z+1/3'
  6  'y, -x+y, z+2/3'
loop_
 _atom_site_type_symbol
 _atom_site_label
 _atom_site_symmetry_multiplicity
 _atom_site_fract_x
 _atom_site_fract_y
 _atom_site_fract_z
 _atom_site_occupancy
  H  H0  6  -0.00770525  0.30322137  0.33319279  1
  H  H1  6  0.03220245  0.23215166  0.49630292  1
  H  H2  6  0.05785359  0.33422489  0.16285073  1
  H  H3  6  0.05910552  0.46733626  0.51704881  1
  H  H4  6  0.07709811  0.86282287  0.81049826  1
  H  H5  6  0.13535666  0.44666839  0.70297623  1
  H  H6  6  0.14182436  0.58396301  0.42666954  1
  H  H7  6  0.21491572  0.73567192  1.03212582  1
  C  C8  6  0.06484385  0.35186798  0.27965595  1
  C  C9  6  0.11431509  0.27102332  0.48472199  1
  C  C10  6  0.12171308  0.50527375  0.43928098  1
  C  C11  6  0.19353023  0.44263818  0.63801702  1
  N  N12  6  0.09091142  0.45648764  0.29707458  1
  N  N13  6  0.10673160  0.51562879  0.17157727  1
  N  N14  6  0.13205471  0.77190016  0.61653719  1
  N  N15  6  0.13598176  0.32696407  0.34917838  1
  N  N16  6  0.13901085  0.85851615  1.07664528  1
  N  N17  6  0.16457028  0.33467683  0.61522320  1
  N  N18  6  0.20433101  0.49609927  0.50320679  1
  N  N19  6  0.25354250  0.70110139  0.77394078  1
  O  O20  6  0.05092875  0.71398966  0.67398454  1
  O  O21  6  0.09252388  0.90481188  1.06718716  1
  O  O22  6  0.09507368  0.47508152  0.05344630  1
  O  O23  6  0.12656119  0.60267402  0.19339647  1
  O  O24  6  0.15872976  0.83035848  1.19190892  1
  O  O25  6  0.16581023  0.75466385  0.50558369  1
  O  O26  6  0.17369055  0.63306200  0.82046480  1
  O  O27  6  0.30196758  0.69495617  0.67166738  1
