###############################################################################################
#
# CIF file generated by modified CIFWriter class 
# in pymatgen (v2025.03.10) https://pymatgen.org/
#
###############################################################################################
data_MACE-OFF23(L)_8215070dce48c19
_symmetry_space_group_name_H-M   P3_121
_cell_length_a   10.91479965
_cell_length_b   10.91479965
_cell_length_c   19.11814754
_cell_angle_alpha   90.00000000
_cell_angle_beta   90.00000000
_cell_angle_gamma   120.00000000
_symmetry_Int_Tables_number   152
_chemical_formula_moiety   'C4 H8 N8 O8'
_chemical_formula_sum   'H48 C24 N48 O48'
_cell_volume   1972.45896435
_cell_formula_units_Z   6
loop_
 _symmetry_equiv_pos_site_id
 _symmetry_equiv_pos_as_xyz
  1  'x, y, z'
  2  '-y, x-y, z+1/3'
  3  '-x+y, -x, z+2/3'
  4  'y, x, -z'
  5  'x-y, -y, -z+2/3'
  6  '-x, -x+y, -z+1/3'
loop_
 _atom_site_type_symbol
 _atom_site_label
 _atom_site_symmetry_multiplicity
 _atom_site_fract_x
 _atom_site_fract_y
 _atom_site_fract_z
 _atom_site_occupancy
  H  H0  6  -0.05173793  0.36522441  0.43868944  1
  H  H1  6  -0.01142934  0.25376371  0.38887772  1
  H  H2  6  0.05211316  0.58387168  0.42086873  1
  H  H3  6  0.07086363  0.42309984  0.56888205  1
  H  H4  6  0.15983958  0.63424723  0.53969780  1
  H  H5  6  0.16699229  0.65428756  0.34914735  1
  H  H6  6  0.16883854  0.82582161  0.25084704  1
  H  H7  6  0.25708648  0.60261042  0.87983214  1
  C  C8  6  0.03084767  0.34141913  0.42509932  1
  C  C9  6  0.14649255  0.39776493  0.54581633  1
  C  C10  6  0.15248411  0.60377685  0.39931203  1
  C  C11  6  0.26102372  0.65701458  0.51787379  1
  N  N12  6  -0.01012304  0.16210685  0.50808817  1
  N  N13  6  0.08265408  0.30052676  0.48634492  1
  N  N14  6  0.14067787  0.46639094  0.39214761  1
  N  N15  6  0.14654930  0.59851153  0.21201093  1
  N  N16  6  0.18685468  0.56961553  0.75194834  1
  N  N17  6  0.21793051  0.76555246  0.01601705  1
  N  N18  6  0.25911821  0.73004793  0.19333501  1
  N  N19  6  0.26368134  0.69865053  0.44592804  1
  O  O20  6  0.01994756  0.12348266  0.56152342  1
  O  O21  6  0.04446197  0.59578737  0.23918052  1
  O  O22  6  0.09102706  -0.11298877  0.52815980  1
  O  O23  6  0.11526181  0.59357482  0.79222477  1
  O  O24  6  0.12248850  0.78782071  0.00423265  1
  O  O25  6  0.15953163  0.49765714  0.19941514  1
  O  O26  6  0.16084477  0.54206062  0.69042732  1
  O  O27  6  0.22933201  0.66709854  -0.00614701  1
