###############################################################################################
#
# CIF file generated by modified CIFWriter class 
# in pymatgen (v2025.03.10) https://pymatgen.org/
#
###############################################################################################
data_MACE-OFF23(L)_878d1a7ab1a23ea
_symmetry_space_group_name_H-M   P3_221
_cell_length_a   7.93150365
_cell_length_b   7.93150365
_cell_length_c   32.97215636
_cell_angle_alpha   90.00000000
_cell_angle_beta   90.00000000
_cell_angle_gamma   120.00000000
_symmetry_Int_Tables_number   154
_chemical_formula_moiety   'C4 H8 N8 O8'
_chemical_formula_sum   'H48 C24 N48 O48'
_cell_volume   1796.34206057
_cell_formula_units_Z   6
loop_
 _symmetry_equiv_pos_site_id
 _symmetry_equiv_pos_as_xyz
  1  'x, y, z'
  2  '-y, x-y, z+2/3'
  3  '-x+y, -x, z+1/3'
  4  'y, x, -z'
  5  'x-y, -y, -z+1/3'
  6  '-x, -x+y, -z+2/3'
loop_
 _atom_site_type_symbol
 _atom_site_label
 _atom_site_symmetry_multiplicity
 _atom_site_fract_x
 _atom_site_fract_y
 _atom_site_fract_z
 _atom_site_occupancy
  H  H0  6  -0.21940099  0.38499738  0.69547026  1
  H  H1  6  -0.13401211  0.18505881  0.77971799  1
  H  H2  6  -0.13072296  0.20015708  0.72606830  1
  H  H3  6  0.08918054  0.59646866  0.66451266  1
  H  H4  6  0.12603110  0.61242745  0.05582116  1
  H  H5  6  0.15157180  0.36097192  0.33985403  1
  H  H6  6  0.17164821  0.41098964  0.69299510  1
  H  H7  6  0.17806049  0.50565267  0.60876039  1
  C  C8  6  -0.19525984  0.49022872  0.71922457  1
  C  C9  6  -0.07767416  0.28316735  0.75408170  1
  C  C10  6  0.13225153  0.70803313  0.68772500  1
  C  C11  6  0.24248782  0.49291796  0.72036789  1
  N  N12  6  -0.18854475  0.47460906  0.79208854  1
  N  N13  6  -0.14620315  0.42023542  0.75495867  1
  N  N14  6  -0.07593961  0.83761115  0.70820015  1
  N  N15  6  -0.04615704  0.68108844  0.70538934  1
  N  N16  6  0.07974143  0.77982178  0.11208375  1
  N  N17  6  0.13461824  0.38292160  0.75531586  1
  N  N18  6  0.15978584  0.57062350  0.40038909  1
  N  N19  6  0.25635154  0.68007536  0.71526638  1
  O  O20  6  -0.19744652  0.37995172  0.82143983  1
  O  O21  6  -0.04662418  0.19645593  0.62624365  1
  O  O22  6  -0.03018069  0.60624635  0.10737074  1
  O  O23  6  0.00024721  0.45007519  0.38760484  1
  O  O24  6  0.00131743  0.06803113  0.37681834  1
  O  O25  6  0.05627874  0.88341203  0.13530420  1
  O  O26  6  0.17479142  0.38495410  0.54245788  1
  O  O27  6  0.19375467  0.68621705  0.42714072  1
