###############################################################################################
#
# CIF file generated by modified CIFWriter class 
# in pymatgen (v2025.03.10) https://pymatgen.org/
#
###############################################################################################
data_MACE-OFF23(L)_885f6e6c2b6d2c5
_symmetry_space_group_name_H-M   P3_121
_cell_length_a   13.92253317
_cell_length_b   13.92253317
_cell_length_c   11.03693547
_cell_angle_alpha   90.00000000
_cell_angle_beta   90.00000000
_cell_angle_gamma   120.00000000
_symmetry_Int_Tables_number   152
_chemical_formula_moiety   'C4 H8 N8 O8'
_chemical_formula_sum   'H48 C24 N48 O48'
_cell_volume   1852.74503234
_cell_formula_units_Z   6
loop_
 _symmetry_equiv_pos_site_id
 _symmetry_equiv_pos_as_xyz
  1  'x, y, z'
  2  '-y, x-y, z+1/3'
  3  '-x+y, -x, z+2/3'
  4  'y, x, -z'
  5  'x-y, -y, -z+2/3'
  6  '-x, -x+y, -z+1/3'
loop_
 _atom_site_type_symbol
 _atom_site_label
 _atom_site_symmetry_multiplicity
 _atom_site_fract_x
 _atom_site_fract_y
 _atom_site_fract_z
 _atom_site_occupancy
  H  H0  6  -0.18674077  0.42268114  0.48906585  1
  H  H1  6  -0.13515298  0.43967189  0.33998038  1
  H  H2  6  -0.05613411  0.24967481  0.36806206  1
  H  H3  6  -0.05417273  0.35461282  0.27748159  1
  H  H4  6  0.03327478  0.59821835  0.29051759  1
  H  H5  6  0.09619078  0.70823850  0.39554895  1
  H  H6  6  0.12435057  0.51905686  0.23536314  1
  H  H7  6  0.24183529  0.53684089  0.31319310  1
  C  C8  6  -0.11299580  0.44785514  0.43562747  1
  C  C9  6  -0.02474000  0.33795043  0.36168792  1
  C  C10  6  0.06082580  0.61962007  0.38401082  1
  C  C11  6  0.15544701  0.51148997  0.32307582  1
  N  N12  6  -0.09670201  0.31724318  0.56470312  1
  N  N13  6  -0.07735896  0.62648840  0.51021126  1
  N  N14  6  -0.06830349  0.37587281  0.45807340  1
  N  N15  6  -0.03385055  0.56256691  0.46478569  1
  N  N16  6  0.09490385  0.39651449  0.35854144  1
  N  N17  6  0.14240516  0.58625166  0.40329774  1
  N  N18  6  0.15114102  0.34397412  0.39921035  1
  N  N19  6  0.21850346  0.63840446  0.49344849  1
  O  O20  6  -0.17570402  0.57853895  0.53571187  1
  O  O21  6  -0.13649129  0.34789247  0.64410351  1
  O  O22  6  -0.07947547  0.24093834  0.57292068  1
  O  O23  6  -0.01371667  0.72415438  0.52362742  1
  O  O24  6  0.09784369  0.24595753  0.41753977  1
  O  O25  6  0.15032668  0.74859572  0.07731249  1
  O  O26  6  0.20460372  0.70021019  0.55887602  1
  O  O27  6  0.29444513  0.61920503  0.50121927  1
