###############################################################################################
#
# CIF file generated by modified CIFWriter class 
# in pymatgen (v2025.03.10) https://pymatgen.org/
#
###############################################################################################
data_MACE-OFF23(L)_8e1dfcfb2c94580
_symmetry_space_group_name_H-M   P6_3
_cell_length_a   15.13232464
_cell_length_b   15.13232464
_cell_length_c   10.53091603
_cell_angle_alpha   90.00000000
_cell_angle_beta   90.00000000
_cell_angle_gamma   120.00000000
_symmetry_Int_Tables_number   173
_chemical_formula_moiety   'C4 H8 N8 O8'
_chemical_formula_sum   'H48 C24 N48 O48'
_cell_volume   2088.37305538
_cell_formula_units_Z   6
loop_
 _symmetry_equiv_pos_site_id
 _symmetry_equiv_pos_as_xyz
  1  'x, y, z'
  2  'x-y, x, z+1/2'
  3  '-y, x-y, z'
  4  '-x, -y, z+1/2'
  5  '-x+y, -x, z'
  6  'y, -x+y, z+1/2'
loop_
 _atom_site_type_symbol
 _atom_site_label
 _atom_site_symmetry_multiplicity
 _atom_site_fract_x
 _atom_site_fract_y
 _atom_site_fract_z
 _atom_site_occupancy
  H  H0  6  -0.01264188  0.77167968  0.83321907  1
  H  H1  6  0.03046090  0.88641246  0.49353036  1
  H  H2  6  0.05334716  0.55380387  0.70431580  1
  H  H3  6  0.06869957  0.65150302  0.36099254  1
  H  H4  6  0.10649646  0.82074682  0.75663849  1
  H  H5  6  0.12145416  0.25204508  0.56978375  1
  H  H6  6  0.14522497  0.68132931  0.66611906  1
  H  H7  6  0.15757076  0.72973813  0.47735955  1
  C  C8  6  0.02718947  0.76088260  0.75502868  1
  C  C9  6  0.05397067  0.83477336  0.53086498  1
  C  C10  6  0.06406204  0.62701144  0.67489842  1
  C  C11  6  0.07781235  0.69215281  0.44883415  1
  N  N12  6  -0.11229842  0.71149840  0.60742812  1
  N  N13  6  -0.07301444  0.53943202  0.52308452  1
  N  N14  6  -0.04217670  0.59791243  0.86331246  1
  N  N15  6  -0.01139452  0.77412538  0.63481117  1
  N  N16  6  0.00907145  0.77546972  0.31423887  1
  N  N17  6  0.02118575  0.62227946  0.55051595  1
  N  N18  6  0.02337995  0.66425026  0.77273021  1
  N  N19  6  0.05229469  0.77140041  0.42727317  1
  O  O20  6  -0.16195549  0.64333778  0.68225354  1
  O  O21  6  -0.11077802  0.47406537  0.60368556  1
  O  O22  6  -0.11010846  0.54104013  0.42184848  1
  O  O23  6  -0.08398122  0.62890271  0.93412189  1
  O  O24  6  -0.05018585  0.51428685  0.86987102  1
  O  O25  6  -0.01840897  0.70520852  0.24074853  1
  O  O26  6  0.00420318  0.85244787  0.29428023  1
  O  O27  6  0.12781375  -0.14392146  0.00995007  1
