###############################################################################################
#
# CIF file generated by modified CIFWriter class 
# in pymatgen (v2025.03.10) https://pymatgen.org/
#
###############################################################################################
data_MACE-OFF23(L)_92e97fca48f39f5
_symmetry_space_group_name_H-M   P-3
_cell_length_a   21.16141519
_cell_length_b   21.16141519
_cell_length_c   5.84749936
_cell_angle_alpha   90.00000000
_cell_angle_beta   90.00000000
_cell_angle_gamma   120.00000000
_symmetry_Int_Tables_number   147
_chemical_formula_moiety   'C4 H8 N8 O8'
_chemical_formula_sum   'H48 C24 N48 O48'
_cell_volume   2267.72418331
_cell_formula_units_Z   6
loop_
 _symmetry_equiv_pos_site_id
 _symmetry_equiv_pos_as_xyz
  1  'x, y, z'
  2  '-x, -y, -z'
  3  '-y, x-y, z'
  4  'y, -x+y, -z'
  5  '-x+y, -x, z'
  6  'x-y, x, -z'
loop_
 _atom_site_type_symbol
 _atom_site_label
 _atom_site_symmetry_multiplicity
 _atom_site_fract_x
 _atom_site_fract_y
 _atom_site_fract_z
 _atom_site_occupancy
  H  H0  6  0.05358886  0.64131761  -0.30004280  1
  H  H1  6  0.09775594  0.83841470  -0.17904543  1
  H  H2  6  0.10280858  0.41429255  -0.04082461  1
  H  H3  6  0.11656325  0.71370828  -0.47402492  1
  H  H4  6  0.14069163  0.42164897  -0.31570882  1
  H  H5  6  0.14193256  0.82094681  -0.40654312  1
  H  H6  6  0.24692559  0.50465646  -0.38664703  1
  H  H7  6  0.26737252  0.70035045  -0.16970880  1
  C  C8  6  0.10667184  0.69015129  -0.30352140  1
  C  C9  6  0.13613057  0.82063430  -0.22186818  1
  C  C10  6  0.14387822  0.40955105  -0.13691817  1
  C  C11  6  0.23701794  0.72623203  -0.22357912  1
  N  N12  6  0.08072448  0.28937499  0.04527029  1
  N  N13  6  0.08340570  0.72558478  0.06337313  1
  N  N14  6  0.10922536  0.74565361  -0.15285979  1
  N  N15  6  0.12857895  0.33483100  -0.12220173  1
  N  N16  6  0.13980838  0.59908787  -0.19913372  1
  N  N17  6  0.16125964  0.67059193  -0.24902767  1
  N  N18  6  0.21689105  0.46382207  -0.06576886  1
  N  N19  6  0.23386256  0.47122597  0.15919385  1
  O  O20  6  0.04842306  0.31297222  0.15554102  1
  O  O21  6  0.06225746  0.66284914  0.11776406  1
  O  O22  6  0.07204240  0.22869581  0.06124709  1
  O  O23  6  0.07559050  0.55455533  -0.21373389  1
  O  O24  6  0.08602234  0.77301114  0.18741070  1
  O  O25  6  0.18672612  0.42830388  0.28943193  1
  O  O26  6  0.18790805  0.58545991  -0.15268095  1
  O  O27  6  0.22288649  0.70511336  0.21423516  1
