###############################################################################################
#
# CIF file generated by modified CIFWriter class 
# in pymatgen (v2025.03.10) https://pymatgen.org/
#
###############################################################################################
data_MACE-OFF23(L)_9409f4486a6ef82
_symmetry_space_group_name_H-M   P3_221
_cell_length_a   11.49026783
_cell_length_b   11.49026783
_cell_length_c   15.21060792
_cell_angle_alpha   90.00000000
_cell_angle_beta   90.00000000
_cell_angle_gamma   120.00000000
_symmetry_Int_Tables_number   154
_chemical_formula_moiety   'C4 H8 N8 O8'
_chemical_formula_sum   'H48 C24 N48 O48'
_cell_volume   1739.15186669
_cell_formula_units_Z   6
loop_
 _symmetry_equiv_pos_site_id
 _symmetry_equiv_pos_as_xyz
  1  'x, y, z'
  2  '-y, x-y, z+2/3'
  3  '-x+y, -x, z+1/3'
  4  'y, x, -z'
  5  'x-y, -y, -z+1/3'
  6  '-x, -x+y, -z+2/3'
loop_
 _atom_site_type_symbol
 _atom_site_label
 _atom_site_symmetry_multiplicity
 _atom_site_fract_x
 _atom_site_fract_y
 _atom_site_fract_z
 _atom_site_occupancy
  H  H0  6  0.02940809  0.71519725  0.24744217  1
  H  H1  6  0.05061994  0.13144834  0.71857679  1
  H  H2  6  0.05684196  0.28161710  0.75457405  1
  H  H3  6  0.14451613  0.33107416  0.88518642  1
  H  H4  6  0.14864568  0.47137597  0.64432724  1
  H  H5  6  0.20939113  0.54160930  0.77436031  1
  H  H6  6  0.21141658  0.74154964  -0.10281838  1
  H  H7  6  0.28559225  0.61906913  0.11446599  1
  C  C8  6  0.10558257  0.75797581  0.19704068  1
  C  C9  6  0.11432789  0.23916683  0.72564373  1
  C  C10  6  0.21879187  0.77717253  -0.03625996  1
  C  C11  6  0.24765480  0.68806921  0.10825759  1
  N  N12  6  -0.09177410  0.71951601  0.11442631  1
  N  N13  6  0.04777852  0.77614142  0.11883663  1
  N  N14  6  0.09331490  0.22072323  0.56702524  1
  N  N15  6  0.10669017  0.53904615  -0.00503475  1
  N  N16  6  0.13392110  0.83723823  -0.02711146  1
  N  N17  6  0.15956011  0.66675465  0.18313113  1
  N  N18  6  0.17940400  0.66838574  0.02525448  1
  N  N19  6  0.19728054  0.63086446  0.26050338  1
  O  O20  6  -0.15723624  0.64470063  0.17328020  1
  O  O21  6  0.00847248  0.10413136  0.57943818  1
  O  O22  6  0.06952783  0.52163010  -0.08173481  1
  O  O23  6  0.08325282  0.45023622  0.04674924  1
  O  O24  6  0.11793827  0.25062547  0.28280288  1
  O  O25  6  0.12435697  0.27654939  0.49638038  1
  O  O26  6  0.14593251  0.63925455  0.32808773  1
  O  O27  6  0.27896350  0.59306791  0.25635785  1
