###############################################################################################
#
# CIF file generated by modified CIFWriter class 
# in pymatgen (v2025.03.10) https://pymatgen.org/
#
###############################################################################################
data_MACE-OFF23(L)_9418204fd011690
_symmetry_space_group_name_H-M   P3_221
_cell_length_a   11.63555825
_cell_length_b   11.63555825
_cell_length_c   17.35331756
_cell_angle_alpha   90.00000000
_cell_angle_beta   90.00000000
_cell_angle_gamma   120.00000000
_symmetry_Int_Tables_number   154
_chemical_formula_moiety   'C4 H8 N8 O8'
_chemical_formula_sum   'H48 C24 N48 O48'
_cell_volume   2034.64007875
_cell_formula_units_Z   6
loop_
 _symmetry_equiv_pos_site_id
 _symmetry_equiv_pos_as_xyz
  1  'x, y, z'
  2  '-y, x-y, z+2/3'
  3  '-x+y, -x, z+1/3'
  4  'y, x, -z'
  5  'x-y, -y, -z+1/3'
  6  '-x, -x+y, -z+2/3'
loop_
 _atom_site_type_symbol
 _atom_site_label
 _atom_site_symmetry_multiplicity
 _atom_site_fract_x
 _atom_site_fract_y
 _atom_site_fract_z
 _atom_site_occupancy
  H  H0  6  -0.12582440  0.53063893  0.02359052  1
  H  H1  6  -0.11338660  0.40999068  0.10934144  1
  H  H2  6  -0.03651116  0.70474192  0.03367970  1
  H  H3  6  -0.02724282  0.43375062  -0.07850275  1
  H  H4  6  -0.01271840  0.48235352  0.19122399  1
  H  H5  6  -0.01159454  0.31195471  0.00636762  1
  H  H6  6  0.11794471  0.55569041  -0.12560255  1
  H  H7  6  0.14465995  0.33476069  0.03384727  1
  C  C8  6  -0.02729833  0.61764416  0.02532979  1
  C  C9  6  -0.01197722  0.47090707  0.12943388  1
  C  C10  6  0.06579522  0.52645832  -0.07120488  1
  C  C11  6  0.08303541  0.38000846  0.03286520  1
  N  N12  6  0.03883421  0.62915074  -0.04713639  1
  N  N13  6  0.03892948  0.59707651  0.09027110  1
  N  N14  6  0.06254001  0.40516869  0.11186458  1
  N  N15  6  0.09167792  0.74593772  -0.08863266  1
  N  N16  6  0.13112130  0.38381172  0.16988997  1
  N  N17  6  0.14088977  0.49755987  -0.01539851  1
  N  N18  6  0.15215974  0.70252662  0.11732197  1
  N  N19  6  0.26745754  0.59502937  0.00059779  1
  O  O20  6  0.07511911  0.83339164  -0.06359403  1
  O  O21  6  0.11947936  0.41546059  0.23470373  1
  O  O22  6  0.13612537  0.80612712  0.48553507  1
  O  O23  6  0.14877003  0.75081264  -0.14838140  1
  O  O24  6  0.19376691  0.38892740  0.74843794  1
  O  O25  6  0.20424528  0.68446704  0.17294840  1
  O  O26  6  0.24596947  0.67324531  0.38344767  1
  O  O27  6  0.30166221  0.61048672  0.63168680  1
