###############################################################################################
#
# CIF file generated by modified CIFWriter class 
# in pymatgen (v2025.03.10) https://pymatgen.org/
#
###############################################################################################
data_MACE-OFF23(L)_960d5a89a656aaf
_symmetry_space_group_name_H-M   P-3
_cell_length_a   19.26793143
_cell_length_b   19.26793143
_cell_length_c   6.02471366
_cell_angle_alpha   90.00000000
_cell_angle_beta   90.00000000
_cell_angle_gamma   120.00000000
_symmetry_Int_Tables_number   147
_chemical_formula_moiety   'C4 H8 N8 O8'
_chemical_formula_sum   'H48 C24 N48 O48'
_cell_volume   1937.03392309
_cell_formula_units_Z   6
loop_
 _symmetry_equiv_pos_site_id
 _symmetry_equiv_pos_as_xyz
  1  'x, y, z'
  2  '-x, -y, -z'
  3  '-y, x-y, z'
  4  'y, -x+y, -z'
  5  '-x+y, -x, z'
  6  'x-y, x, -z'
loop_
 _atom_site_type_symbol
 _atom_site_label
 _atom_site_symmetry_multiplicity
 _atom_site_fract_x
 _atom_site_fract_y
 _atom_site_fract_z
 _atom_site_occupancy
  H  H0  6  -0.07840965  0.56414583  0.70809823  1
  H  H1  6  -0.01245364  0.58959299  0.93690363  1
  H  H2  6  0.02371137  0.78608924  0.98757467  1
  H  H3  6  0.03877755  0.70941804  1.09597852  1
  H  H4  6  0.10106711  0.59294154  0.89454963  1
  H  H5  6  0.13713800  0.58594027  0.63021805  1
  H  H6  6  0.15296794  0.71443495  1.07376936  1
  H  H7  6  0.20022558  0.43639436  0.95998765  1
  C  C8  6  -0.02013463  0.60779157  0.77190442  1
  C  C9  6  0.04152523  0.74250009  0.94708023  1
  C  C10  6  0.11601592  0.61863159  0.72854525  1
  C  C11  6  0.17648745  0.75104224  0.92559362  1
  N  N12  6  -0.08214876  0.69102740  0.73771359  1
  N  N13  6  -0.01512822  0.68515873  0.78868722  1
  N  N14  6  0.02213213  0.58301422  0.42032030  1
  N  N15  6  0.04235782  0.60965772  0.63413401  1
  N  N16  6  0.12361913  0.78203436  0.87305390  1
  N  N17  6  0.14089157  0.29659157  0.79182168  1
  N  N18  6  0.17970903  0.70020562  0.75500157  1
  N  N19  6  0.24110160  0.73350557  0.59829316  1
  O  O20  6  -0.14094044  0.63126150  0.66835102  1
  O  O21  6  -0.07739133  0.75546864  0.76425287  1
  O  O22  6  -0.04052464  0.57478477  0.34974667  1
  O  O23  6  0.06808099  0.56968935  0.31374553  1
  O  O24  6  0.10168860  0.33007267  0.77739262  1
  O  O25  6  0.10934413  0.88117056  0.74059095  1
  O  O26  6  0.20321789  0.50262877  0.64740995  1
  O  O27  6  0.23151999  0.69558872  0.43033127  1
