###############################################################################################
#
# CIF file generated by modified CIFWriter class 
# in pymatgen (v2025.03.10) https://pymatgen.org/
#
###############################################################################################
data_MACE-OFF23(L)_995189fcfaa4047
_symmetry_space_group_name_H-M   P3_121
_cell_length_a   7.18394624
_cell_length_b   7.18394624
_cell_length_c   40.83636475
_cell_angle_alpha   90.00000000
_cell_angle_beta   90.00000000
_cell_angle_gamma   120.00000000
_symmetry_Int_Tables_number   152
_chemical_formula_moiety   'C4 H8 N8 O8'
_chemical_formula_sum   'H48 C24 N48 O48'
_cell_volume   1825.17223499
_cell_formula_units_Z   6
loop_
 _symmetry_equiv_pos_site_id
 _symmetry_equiv_pos_as_xyz
  1  'x, y, z'
  2  '-y, x-y, z+1/3'
  3  '-x+y, -x, z+2/3'
  4  'y, x, -z'
  5  'x-y, -y, -z+2/3'
  6  '-x, -x+y, -z+1/3'
loop_
 _atom_site_type_symbol
 _atom_site_label
 _atom_site_symmetry_multiplicity
 _atom_site_fract_x
 _atom_site_fract_y
 _atom_site_fract_z
 _atom_site_occupancy
  H  H0  6  -0.19772195  0.30466351  0.29004322  1
  H  H1  6  -0.09106351  0.14430017  0.73595073  1
  H  H2  6  -0.07161420  0.56064282  0.27161471  1
  H  H3  6  -0.03216273  0.21090245  0.32059666  1
  H  H4  6  -0.01727427  -0.27786569  0.75187166  1
  H  H5  6  -0.01447440  1.09916838  0.94499845  1
  H  H6  6  0.07502031  -0.18494926  0.79202951  1
  H  H7  6  0.14468140  0.75856397  0.99597136  1
  C  C8  6  -0.07607467  0.40811049  0.27249025  1
  C  C9  6  -0.00204277  0.06526223  0.72926072  1
  C  C10  6  0.10954351  -0.14940218  0.76625699  1
  C  C11  6  0.12884946  0.29399791  0.31018763  1
  N  N12  6  -0.15168099  0.43215704  0.21489459  1
  N  N13  6  -0.13566171  0.31325994  0.24053549  1
  N  N14  6  -0.04577911  0.81871878  0.96509482  1
  N  N15  6  0.00424548  0.77432953  0.89073525  1
  N  N16  6  0.04528271  0.10797529  0.24268022  1
  N  N17  6  0.12342053  0.43111503  0.28489231  1
  N  N18  6  0.16112145  0.38035152  0.69338466  1
  N  N19  6  0.27304223  0.68695191  0.93832900  1
  O  O20  6  -0.19986522  0.34649030  0.18852977  1
  O  O21  6  -0.18722687  0.51474339  0.99349288  1
  O  O22  6  -0.14862299  0.60891279  0.90057548  1
  O  O23  6  -0.12296436  0.60935465  0.22168812  1
  O  O24  6  0.03848361  0.43071584  0.70526988  1
  O  O25  6  0.11304228  0.79635285  0.86699855  1
  O  O26  6  0.12736146  0.52307660  0.95002068  1
  O  O27  6  0.30170278  0.68671463  0.24876761  1
