###############################################################################################
#
# CIF file generated by modified CIFWriter class 
# in pymatgen (v2025.03.10) https://pymatgen.org/
#
###############################################################################################
data_MACE-OFF23(L)_9d551a645a6ba07
_symmetry_space_group_name_H-M   P3_121
_cell_length_a   7.13602150
_cell_length_b   7.13602150
_cell_length_c   41.96403278
_cell_angle_alpha   90.00000000
_cell_angle_beta   90.00000000
_cell_angle_gamma   120.00000000
_symmetry_Int_Tables_number   152
_chemical_formula_moiety   'C4 H8 N8 O8'
_chemical_formula_sum   'H48 C24 N48 O48'
_cell_volume   1850.63234983
_cell_formula_units_Z   6
loop_
 _symmetry_equiv_pos_site_id
 _symmetry_equiv_pos_as_xyz
  1  'x, y, z'
  2  '-y, x-y, z+1/3'
  3  '-x+y, -x, z+2/3'
  4  'y, x, -z'
  5  'x-y, -y, -z+2/3'
  6  '-x, -x+y, -z+1/3'
loop_
 _atom_site_type_symbol
 _atom_site_label
 _atom_site_symmetry_multiplicity
 _atom_site_fract_x
 _atom_site_fract_y
 _atom_site_fract_z
 _atom_site_occupancy
  H  H0  6  -0.27742109  0.28875114  0.07606644  1
  H  H1  6  -0.16419189  0.20564441  0.39988873  1
  H  H2  6  -0.09426565  0.78114597  0.13199068  1
  H  H3  6  -0.01491285  0.09301424  0.38408461  1
  H  H4  6  0.02271577  0.21719358  0.57303275  1
  H  H5  6  0.03545581  0.76055787  0.01991096  1
  H  H6  6  0.19449158  0.48063491  0.60435669  1
  H  H7  6  0.21250807  0.65800834  0.01329002  1
  C  C8  6  -0.18095432  0.45784831  0.06984856  1
  C  C9  6  -0.06345676  0.78166325  0.10675359  1
  C  C10  6  -0.00910908  0.21359662  0.40047213  1
  C  C11  6  0.11868865  0.68517721  0.03106745  1
  N  N12  6  -0.10838933  0.16188803  0.45647535  1
  N  N13  6  -0.06533214  0.58561331  0.09716788  1
  N  N14  6  -0.04016969  0.47568538  0.04350560  1
  N  N15  6  -0.03507783  0.29535950  0.03345693  1
  N  N16  6  0.02512368  0.16314140  0.43227574  1
  N  N17  6  0.04796407  0.51586290  0.11543433  1
  N  N18  6  0.16203868  0.41999354  0.38812932  1
  N  N19  6  0.20303457  0.60669824  0.40327976  1
  O  O20  6  -0.06150529  0.14246861  0.48331061  1
  O  O21  6  0.04537285  0.35324589  0.10629843  1
  O  O22  6  0.08753512  0.58991634  0.42546657  1
  O  O23  6  0.10365775  0.31891963  0.01447726  1
  O  O24  6  0.11996038  -0.17757084  0.95704721  1
  O  O25  6  0.14509739  0.62644501  0.13799674  1
  O  O26  6  0.17283992  -0.26618247  0.55154845  1
  O  O27  6  0.22609262  0.58108738  0.72670929  1
