###############################################################################################
#
# CIF file generated by modified CIFWriter class 
# in pymatgen (v2025.03.10) https://pymatgen.org/
#
###############################################################################################
data_MACE-OFF23(L)_9eb8ba823a14258
_symmetry_space_group_name_H-M   P3_212
_cell_length_a   6.83967024
_cell_length_b   6.83967024
_cell_length_c   44.70862184
_cell_angle_alpha   90.00000000
_cell_angle_beta   90.00000000
_cell_angle_gamma   120.00000000
_symmetry_Int_Tables_number   153
_chemical_formula_moiety   'C4 H8 N8 O8'
_chemical_formula_sum   'H48 C24 N48 O48'
_cell_volume   1811.30773636
_cell_formula_units_Z   6
loop_
 _symmetry_equiv_pos_site_id
 _symmetry_equiv_pos_as_xyz
  1  'x, y, z'
  2  '-y, x-y, z+2/3'
  3  '-x+y, -x, z+1/3'
  4  '-y, -x, -z+1/3'
  5  '-x+y, y, -z+2/3'
  6  'x, x-y, -z'
loop_
 _atom_site_type_symbol
 _atom_site_label
 _atom_site_symmetry_multiplicity
 _atom_site_fract_x
 _atom_site_fract_y
 _atom_site_fract_z
 _atom_site_occupancy
  H  H0  6  -0.39991389  0.39420964  0.08804940  1
  H  H1  6  -0.21726172  0.23398099  0.87259347  1
  H  H2  6  -0.13007987  0.37844000  0.04807665  1
  H  H3  6  -0.11334381  0.05334555  0.86292155  1
  H  H4  6  -0.06994455  0.36398398  0.98230601  1
  H  H5  6  0.05977423  0.57246519  0.91026944  1
  H  H6  6  0.26683945  0.67068129  0.24718885  1
  H  H7  6  0.49282245  1.56476477  0.25832596  1
  C  C8  6  -0.39524386  0.53481714  0.07615771  1
  C  C9  6  -0.12158061  0.15660320  0.88061606  1
  C  C10  6  -0.11026055  0.34961188  0.95875844  1
  C  C11  6  0.14974819  0.66972397  0.08691313  1
  N  N12  6  -0.44237919  0.00599588  0.97743527  1
  N  N13  6  -0.31865477  0.54115872  0.04619741  1
  N  N14  6  -0.24631055  0.73332633  0.09402631  1
  N  N15  6  0.04312051  0.71259841  0.20753524  1
  N  N16  6  0.05784807  1.19441834  0.24955294  1
  N  N17  6  0.07088004  0.82654762  0.28472817  1
  N  N18  6  0.07265454  0.71131945  0.05877398  1
  N  N19  6  0.10648183  0.77204368  0.11255048  1
  O  O20  6  -0.36569895  0.06588062  1.00237987  1
  O  O21  6  -0.07230894  0.17614659  0.80915910  1
  O  O22  6  -0.06888773  0.26185664  0.72991805  1
  O  O23  6  -0.04038042  -0.14392739  0.90372707  1
  O  O24  6  0.01408859  0.52498766  0.21266270  1
  O  O25  6  0.03537556  0.90663444  0.30667880  1
  O  O26  6  0.05002529  1.30218808  0.27052670  1
  O  O27  6  0.46218744  1.62244364  0.30491349  1
