###############################################################################################
#
# CIF file generated by modified CIFWriter class 
# in pymatgen (v2025.03.10) https://pymatgen.org/
#
###############################################################################################
data_MACE-OFF23(L)_af3f6a5ad5912b8
_symmetry_space_group_name_H-M   P31c
_cell_length_a   15.59996168
_cell_length_b   15.59996168
_cell_length_c   8.38566750
_cell_angle_alpha   90.00000000
_cell_angle_beta   90.00000000
_cell_angle_gamma   120.00000000
_symmetry_Int_Tables_number   159
_chemical_formula_moiety   'C4 H8 N8 O8'
_chemical_formula_sum   'H48 C24 N48 O48'
_cell_volume   1767.32057229
_cell_formula_units_Z   6
loop_
 _symmetry_equiv_pos_site_id
 _symmetry_equiv_pos_as_xyz
  1  'x, y, z'
  2  '-y, x-y, z'
  3  '-x+y, -x, z'
  4  'y, x, z+1/2'
  5  'x-y, -y, z+1/2'
  6  '-x, -x+y, z+1/2'
loop_
 _atom_site_type_symbol
 _atom_site_label
 _atom_site_symmetry_multiplicity
 _atom_site_fract_x
 _atom_site_fract_y
 _atom_site_fract_z
 _atom_site_occupancy
  H  H0  6  0.05270126  0.24853379  0.24044537  1
  H  H1  6  0.06177736  0.38181687  -0.07750554  1
  H  H2  6  0.08150363  0.37015934  0.18572055  1
  H  H3  6  0.08535591  0.30905223  -0.21525774  1
  H  H4  6  0.13636351  0.66538775  0.33343909  1
  H  H5  6  0.21064178  0.52312245  0.04024550  1
  H  H6  6  0.24241161  0.50172666  0.28708551  1
  H  H7  6  0.26115399  0.68382153  -0.08465466  1
  C  C8  6  0.10664553  0.31621480  0.18277689  1
  C  C9  6  0.11191026  0.35492814  -0.11018377  1
  C  C10  6  0.18163792  0.72582892  0.25353124  1
  C  C11  6  0.24680278  0.73705833  -0.02577053  1
  N  N12  6  0.09297220  0.59484550  0.05803895  1
  N  N13  6  0.09897966  0.89567988  -0.01551711  1
  N  N14  6  0.11229247  0.80437784  0.41423535  1
  N  N15  6  0.11690310  0.29735594  0.01840193  1
  N  N16  6  0.15351030  0.80106540  0.26926993  1
  N  N17  6  0.17049011  0.68892675  0.09281370  1
  N  N18  6  0.21033910  0.43734603  -0.14883215  1
  N  N19  6  0.22348052  0.47380596  -0.30418223  1
  O  O20  6  0.03777916  0.54750503  0.16550728  1
  O  O21  6  0.05759881  0.90460252  0.09850984  1
  O  O22  6  0.06020007  0.72528553  0.48006334  1
  O  O23  6  0.07790496  0.89439819  -0.15429279  1
  O  O24  6  0.08920512  0.56722311  -0.07805815  1
  O  O25  6  0.11561695  0.24587738  0.46357286  1
  O  O26  6  0.15428274  0.43106073  -0.39567719  1
  O  O27  6  0.24001605  0.69660881  -0.33782307  1
