###############################################################################################
#
# CIF file generated by modified CIFWriter class 
# in pymatgen (v2025.03.10) https://pymatgen.org/
#
###############################################################################################
data_MACE-OFF23(L)_b01dcce2a41c4bf
_symmetry_space_group_name_H-M   P3_221
_cell_length_a   10.65740352
_cell_length_b   10.65740352
_cell_length_c   19.50807078
_cell_angle_alpha   90.00000000
_cell_angle_beta   90.00000000
_cell_angle_gamma   120.00000000
_symmetry_Int_Tables_number   154
_chemical_formula_moiety   'C4 H8 N8 O8'
_chemical_formula_sum   'H48 C24 N48 O48'
_cell_volume   1918.87981320
_cell_formula_units_Z   6
loop_
 _symmetry_equiv_pos_site_id
 _symmetry_equiv_pos_as_xyz
  1  'x, y, z'
  2  '-y, x-y, z+2/3'
  3  '-x+y, -x, z+1/3'
  4  'y, x, -z'
  5  'x-y, -y, -z+1/3'
  6  '-x, -x+y, -z+2/3'
loop_
 _atom_site_type_symbol
 _atom_site_label
 _atom_site_symmetry_multiplicity
 _atom_site_fract_x
 _atom_site_fract_y
 _atom_site_fract_z
 _atom_site_occupancy
  H  H0  6  0.02855641  0.54286010  0.73044545  1
  H  H1  6  0.04898677  0.28933743  0.47725963  1
  H  H2  6  0.06399914  0.67117521  0.47583509  1
  H  H3  6  0.14142793  0.59954264  0.04847645  1
  H  H4  6  0.14391099  0.58075831  0.80246676  1
  H  H5  6  0.19014309  0.44719154  0.51692476  1
  H  H6  6  0.20679515  0.65162698  0.51060096  1
  H  H7  6  0.23282050  0.66291358  0.12755081  1
  C  C8  6  0.13516832  0.61537127  0.75097922  1
  C  C9  6  0.13571253  0.39920750  0.46902731  1
  C  C10  6  0.14539419  0.64170872  0.46467958  1
  C  C11  6  0.24063300  0.62923855  0.07570772  1
  N  N12  6  -0.04622565  0.42957523  0.40792838  1
  N  N13  6  0.06312666  0.79470615  0.72172773  1
  N  N14  6  0.07764929  0.48956327  0.44624679  1
  N  N15  6  0.15530966  0.75898970  0.75691329  1
  N  N16  6  0.16850617  0.37826922  0.04538118  1
  N  N17  6  0.22781523  0.58707845  0.64167534  1
  N  N18  6  0.24505657  0.60578947  0.71127578  1
  N  N19  6  0.24531225  0.74047430  0.41476428  1
  O  O20  6  -0.10040394  0.30229039  0.39218599  1
  O  O21  6  -0.09416014  0.50761057  0.39174749  1
  O  O22  6  -0.02597898  0.70219865  0.68457116  1
  O  O23  6  0.07864660  0.91277898  0.73275098  1
  O  O24  6  0.09294482  0.38698745  0.00157340  1
  O  O25  6  0.09926914  0.82825305  0.39541835  1
  O  O26  6  0.11710336  0.57308488  0.61747732  1
  O  O27  6  0.26188227  0.67442136  -0.05728283  1
