###############################################################################################
#
# CIF file generated by modified CIFWriter class 
# in pymatgen (v2025.03.10) https://pymatgen.org/
#
###############################################################################################
data_MACE-OFF23(L)_b0a84cd1be38ac1
_symmetry_space_group_name_H-M   P3_121
_cell_length_a   9.83828693
_cell_length_b   9.83828693
_cell_length_c   21.27386659
_cell_angle_alpha   90.00000000
_cell_angle_beta   90.00000000
_cell_angle_gamma   120.00000000
_symmetry_Int_Tables_number   152
_chemical_formula_moiety   'C4 H8 N8 O8'
_chemical_formula_sum   'H48 C24 N48 O48'
_cell_volume   1783.26560082
_cell_formula_units_Z   6
loop_
 _symmetry_equiv_pos_site_id
 _symmetry_equiv_pos_as_xyz
  1  'x, y, z'
  2  '-y, x-y, z+1/3'
  3  '-x+y, -x, z+2/3'
  4  'y, x, -z'
  5  'x-y, -y, -z+2/3'
  6  '-x, -x+y, -z+1/3'
loop_
 _atom_site_type_symbol
 _atom_site_label
 _atom_site_symmetry_multiplicity
 _atom_site_fract_x
 _atom_site_fract_y
 _atom_site_fract_z
 _atom_site_occupancy
  H  H0  6  -0.20813673  0.44857865  0.50501960  1
  H  H1  6  -0.02123789  0.61091131  0.51940858  1
  H  H2  6  0.02991135  0.85401301  0.47950963  1
  H  H3  6  0.06218065  0.14059341  0.25295924  1
  H  H4  6  0.09551815  0.43920527  0.73033425  1
  H  H5  6  0.16389190  0.40520235  0.80216607  1
  H  H6  6  0.17244788  0.44316103  0.44259818  1
  H  H7  6  0.17757792  0.57606720  0.50048366  1
  C  C8  6  -0.10228605  0.53840087  0.48275797  1
  C  C9  6  -0.02366916  0.79866128  0.43485075  1
  C  C10  6  0.14400481  0.53404434  0.45261642  1
  C  C11  6  0.18762977  0.42618286  0.75218738  1
  N  N12  6  -0.14180514  0.63652291  0.44542325  1
  N  N13  6  -0.11148135  0.32945710  0.41775162  1
  N  N14  6  -0.02302085  0.47045246  0.44898597  1
  N  N15  6  0.08998638  0.82430396  0.33118950  1
  N  N16  6  0.10194327  0.81380641  0.39524331  1
  N  N17  6  0.10737600  0.40625953  0.22728233  1
  N  N18  6  0.23280487  0.66396835  0.40949688  1
  N  N19  6  0.30984474  0.64353712  0.04346468  1
  O  O20  6  -0.25279157  0.26635768  0.42420496  1
  O  O21  6  -0.04172615  0.27816688  0.38877555  1
  O  O22  6  -0.02394027  0.30314345  0.24112970  1
  O  O23  6  -0.02351344  0.82729071  0.31148155  1
  O  O24  6  0.14891226  0.54270570  0.21879527  1
  O  O25  6  0.16699541  0.36461959  0.63321193  1
  O  O26  6  0.20134374  0.66174755  0.02747851  1
  O  O27  6  0.20698115  0.67748882  0.70016588  1
