###############################################################################################
#
# CIF file generated by modified CIFWriter class 
# in pymatgen (v2025.03.10) https://pymatgen.org/
#
###############################################################################################
data_MACE-OFF23(L)_b51d6eb420ac584
_symmetry_space_group_name_H-M   P3_121
_cell_length_a   12.67039768
_cell_length_b   12.67039768
_cell_length_c   15.33646315
_cell_angle_alpha   90.00000000
_cell_angle_beta   90.00000000
_cell_angle_gamma   120.00000000
_symmetry_Int_Tables_number   152
_chemical_formula_moiety   'C4 H8 N8 O8'
_chemical_formula_sum   'H48 C24 N48 O48'
_cell_volume   2132.24124226
_cell_formula_units_Z   6
loop_
 _symmetry_equiv_pos_site_id
 _symmetry_equiv_pos_as_xyz
  1  'x, y, z'
  2  '-y, x-y, z+1/3'
  3  '-x+y, -x, z+2/3'
  4  'y, x, -z'
  5  'x-y, -y, -z+2/3'
  6  '-x, -x+y, -z+1/3'
loop_
 _atom_site_type_symbol
 _atom_site_label
 _atom_site_symmetry_multiplicity
 _atom_site_fract_x
 _atom_site_fract_y
 _atom_site_fract_z
 _atom_site_occupancy
  H  H0  6  0.00108118  0.69390494  0.25747464  1
  H  H1  6  0.09100369  0.29800359  0.77891017  1
  H  H2  6  0.11598123  0.38361658  0.68175908  1
  H  H3  6  0.12212206  0.45332019  0.30479598  1
  H  H4  6  0.16003548  0.74709593  0.25637888  1
  H  H5  6  0.22564065  0.60269727  0.26936850  1
  H  H6  6  0.25822836  0.60690909  0.68745970  1
  H  H7  6  0.30208736  0.67320723  0.79181353  1
  C  C8  6  0.07548401  0.69382866  0.29198388  1
  C  C9  6  0.15131114  0.54860268  0.31388584  1
  C  C10  6  0.15872559  0.37194859  0.73974361  1
  C  C11  6  0.29181375  0.59910039  0.75086639  1
  N  N12  6  -0.05220152  0.47895743  0.25641403  1
  N  N13  6  -0.00995103  0.74211500  0.41636264  1
  N  N14  6  0.05037543  0.56929999  0.29657043  1
  N  N15  6  0.09295905  0.75113341  0.37625487  1
  N  N16  6  0.14455204  0.51183630  0.46768207  1
  N  N17  6  0.19665192  0.47662287  0.87989959  1
  N  N18  6  0.19991427  0.58960575  0.40016466  1
  N  N19  6  0.20379872  0.48399860  0.78869985  1
  O  O20  6  -0.12473907  0.50742528  0.22771147  1
  O  O21  6  -0.10669525  0.66539858  0.38623773  1
  O  O22  6  -0.06386068  0.37887751  0.25134877  1
  O  O23  6  0.00588416  0.80915293  0.47673927  1
  O  O24  6  0.05902141  0.41203700  0.45174043  1
  O  O25  6  0.17754339  0.38287657  0.91310720  1
  O  O26  6  0.18496030  0.54940025  0.54064688  1
  O  O27  6  0.20642254  0.56565239  0.91713724  1
