###############################################################################################
#
# CIF file generated by modified CIFWriter class 
# in pymatgen (v2025.03.10) https://pymatgen.org/
#
###############################################################################################
data_MACE-OFF23(L)_b7a4695ca75a6c1
_symmetry_space_group_name_H-M   P-3
_cell_length_a   18.64735435
_cell_length_b   18.64735435
_cell_length_c   6.40446368
_cell_angle_alpha   90.00000000
_cell_angle_beta   90.00000000
_cell_angle_gamma   120.00000000
_symmetry_Int_Tables_number   147
_chemical_formula_moiety   'C4 H8 N8 O8'
_chemical_formula_sum   'H48 C24 N48 O48'
_cell_volume   1928.62524015
_cell_formula_units_Z   6
loop_
 _symmetry_equiv_pos_site_id
 _symmetry_equiv_pos_as_xyz
  1  'x, y, z'
  2  '-x, -y, -z'
  3  '-y, x-y, z'
  4  'y, -x+y, -z'
  5  '-x+y, -x, z'
  6  'x-y, x, -z'
loop_
 _atom_site_type_symbol
 _atom_site_label
 _atom_site_symmetry_multiplicity
 _atom_site_fract_x
 _atom_site_fract_y
 _atom_site_fract_z
 _atom_site_occupancy
  H  H0  6  -0.05156642  0.66918817  -0.01376230  1
  H  H1  6  -0.03748117  0.67817923  0.25786685  1
  H  H2  6  0.00497075  0.61000921  0.42842799  1
  H  H3  6  0.00572394  0.52719166  0.29854681  1
  H  H4  6  0.10351340  0.80066495  0.38749477  1
  H  H5  6  0.12868083  0.29354771  0.19305219  1
  H  H6  6  0.15206759  0.73244427  0.53450186  1
  H  H7  6  0.23702168  0.72644579  0.43101579  1
  C  C8  6  -0.00658865  0.68566850  0.10910818  1
  C  C9  6  0.03555001  0.59373236  0.30854888  1
  C  C10  6  0.12650296  0.80637659  0.22868109  1
  C  C11  6  0.17481669  0.71412179  0.40047868  1
  N  N12  6  0.02452119  0.62824162  0.11546293  1
  N  N13  6  0.05355074  0.61383485  -0.06441628  1
  N  N14  6  0.05705747  0.77142542  0.08695316  1
  N  N15  6  0.06159930  0.81442148  -0.09327500  1
  N  N16  6  0.12091462  0.62582374  0.36624114  1
  N  N17  6  0.15383531  0.57417850  0.36692696  1
  N  N18  6  0.17398952  0.76380346  0.22773010  1
  N  N19  6  0.21406108  0.76408886  0.04864065  1
  O  O20  6  0.01264883  0.77707830  -0.23218734  1
  O  O21  6  0.04980552  0.64904964  -0.22007176  1
  O  O22  6  0.08343241  0.56912153  -0.05640511  1
  O  O23  6  0.10671788  0.50070105  0.33001278  1
  O  O24  6  0.11281044  0.22626587  -0.09889989  1
  O  O25  6  0.19577814  0.40607963  -0.09747469  1
  O  O26  6  0.22608236  0.60406816  0.41144366  1
  O  O27  6  0.24801805  0.72354548  0.04706873  1
