###############################################################################################
#
# CIF file generated by modified CIFWriter class 
# in pymatgen (v2025.03.10) https://pymatgen.org/
#
###############################################################################################
data_MACE-OFF23(L)_b7f99c3366df5e3
_symmetry_space_group_name_H-M   P3_212
_cell_length_a   11.74692862
_cell_length_b   11.74692862
_cell_length_c   17.91927291
_cell_angle_alpha   90.00000000
_cell_angle_beta   90.00000000
_cell_angle_gamma   120.00000000
_symmetry_Int_Tables_number   153
_chemical_formula_moiety   'C4 H8 N8 O8'
_chemical_formula_sum   'H48 C24 N48 O48'
_cell_volume   2141.40925216
_cell_formula_units_Z   6
loop_
 _symmetry_equiv_pos_site_id
 _symmetry_equiv_pos_as_xyz
  1  'x, y, z'
  2  '-y, x-y, z+2/3'
  3  '-x+y, -x, z+1/3'
  4  '-y, -x, -z+1/3'
  5  '-x+y, y, -z+2/3'
  6  'x, x-y, -z'
loop_
 _atom_site_type_symbol
 _atom_site_label
 _atom_site_symmetry_multiplicity
 _atom_site_fract_x
 _atom_site_fract_y
 _atom_site_fract_z
 _atom_site_occupancy
  H  H0  6  0.31271789  0.24336207  0.97632890  1
  H  H1  6  0.33428442  0.31814251  0.17064953  1
  H  H2  6  0.44404725  0.54403058  0.82249004  1
  H  H3  6  0.46936069  0.33629007  0.11793612  1
  H  H4  6  0.47017765  0.28999208  0.94085711  1
  H  H5  6  0.48090321  0.42984267  0.47473586  1
  H  H6  6  0.59615377  0.36244138  0.72120421  1
  H  H7  6  0.60105289  0.23743173  0.18083748  1
  C  C8  6  0.37317047  0.27457760  0.92674411  1
  C  C9  6  0.39614788  0.27619766  0.15927917  1
  C  C10  6  0.46782880  0.47060440  0.84048973  1
  C  C11  6  0.53647516  0.32847369  0.77091781  1
  N  N12  6  0.18102422  0.09080036  0.12759150  1
  N  N13  6  0.31809923  0.17220276  0.87126287  1
  N  N14  6  0.37997970  0.39611352  0.90244949  1
  N  N15  6  0.38503789  0.38836845  0.71650823  1
  N  N16  6  0.39066925  0.47901682  0.96159844  1
  N  N17  6  0.43381453  0.31696806  0.29372461  1
  N  N18  6  0.45331711  0.38635018  0.77869488  1
  N  N19  6  0.46693166  0.28041342  0.22689433  1
  O  O20  6  0.12162947  0.13049363  0.90874970  1
  O  O21  6  0.13683238  0.14662381  0.16308263  1
  O  O22  6  0.32024627  0.44129557  0.72164897  1
  O  O23  6  0.33779976  0.32800281  0.29503965  1
  O  O24  6  0.37095747  0.43353266  1.02445718  1
  O  O25  6  0.39626563  0.33426101  0.66123875  1
  O  O26  6  0.41106398  0.58215090  0.38831339  1
  O  O27  6  0.51016916  0.34075837  0.34561271  1
