###############################################################################################
#
# CIF file generated by modified CIFWriter class 
# in pymatgen (v2025.03.10) https://pymatgen.org/
#
###############################################################################################
data_MACE-OFF23(L)_b8dfd14a23b7495
_symmetry_space_group_name_H-M   P3_221
_cell_length_a   6.68097816
_cell_length_b   6.68097816
_cell_length_c   43.81814012
_cell_angle_alpha   90.00000000
_cell_angle_beta   90.00000000
_cell_angle_gamma   120.00000000
_symmetry_Int_Tables_number   154
_chemical_formula_moiety   'C4 H8 N8 O8'
_chemical_formula_sum   'H48 C24 N48 O48'
_cell_volume   1693.80993138
_cell_formula_units_Z   6
loop_
 _symmetry_equiv_pos_site_id
 _symmetry_equiv_pos_as_xyz
  1  'x, y, z'
  2  '-y, x-y, z+2/3'
  3  '-x+y, -x, z+1/3'
  4  'y, x, -z'
  5  'x-y, -y, -z+1/3'
  6  '-x, -x+y, -z+2/3'
loop_
 _atom_site_type_symbol
 _atom_site_label
 _atom_site_symmetry_multiplicity
 _atom_site_fract_x
 _atom_site_fract_y
 _atom_site_fract_z
 _atom_site_occupancy
  H  H0  6  -0.17401178  0.56689985  0.56379159  1
  H  H1  6  -0.09237992  0.36817619  0.57663032  1
  H  H2  6  -0.03595304  0.37693808  0.94082645  1
  H  H3  6  0.00264197  0.39217000  0.62322414  1
  H  H4  6  0.03310421  0.65476040  0.92806158  1
  H  H5  6  0.09143434  0.64350120  0.64547258  1
  H  H6  6  0.12963002  0.73087665  0.88126652  1
  H  H7  6  0.22675860  0.57479090  0.85891806  1
  C  C8  6  -0.02915845  0.54734528  0.57062160  1
  C  C9  6  0.10348025  0.54406488  0.93382241  1
  C  C10  6  0.12390426  0.57654786  0.62471938  1
  C  C11  6  0.25619693  0.67381992  0.87964192  1
  N  N12  6  0.07739077  0.67630234  0.24075098  1
  N  N13  6  0.07867774  0.67757844  0.59829800  1
  N  N14  6  0.08835577  0.25621200  0.26452135  1
  N  N15  6  0.09458812  0.72401884  0.52076888  1
  N  N16  6  0.12597765  0.61089883  0.54517047  1
  N  N17  6  0.21424002  0.52779568  0.90608529  1
  N  N18  6  0.22411292  0.50991345  0.98498275  1
  N  N19  6  0.25950597  0.64184058  0.95922373  1
  O  O20  6  -0.09171738  0.71390529  0.51907354  1
  O  O21  6  -0.02936210  0.54546461  0.22014352  1
  O  O22  6  -0.01985019  0.26374007  0.28624316  1
  O  O23  6  -0.00523805  0.71672478  0.26297812  1
  O  O24  6  0.00790245  0.13547204  0.24198422  1
  O  O25  6  0.06026647  0.31442196  0.98497955  1
  O  O26  6  0.18299027  0.43350208  0.16931011  1
  O  O27  6  0.24699977  0.64583703  0.33971333  1
