###############################################################################################
#
# CIF file generated by modified CIFWriter class 
# in pymatgen (v2025.03.10) https://pymatgen.org/
#
###############################################################################################
data_MACE-OFF23(L)_b974a7d6eec77e7
_symmetry_space_group_name_H-M   P6_5
_cell_length_a   12.63583986
_cell_length_b   12.63583986
_cell_length_c   14.41029258
_cell_angle_alpha   90.00000000
_cell_angle_beta   90.00000000
_cell_angle_gamma   120.00000000
_symmetry_Int_Tables_number   170
_chemical_formula_moiety   'C4 H8 N8 O8'
_chemical_formula_sum   'H48 C24 N48 O48'
_cell_volume   1992.56114376
_cell_formula_units_Z   6
loop_
 _symmetry_equiv_pos_site_id
 _symmetry_equiv_pos_as_xyz
  1  'x, y, z'
  2  'x-y, x, z+5/6'
  3  '-y, x-y, z+2/3'
  4  '-x, -y, z+1/2'
  5  '-x+y, -x, z+1/3'
  6  'y, -x+y, z+1/6'
loop_
 _atom_site_type_symbol
 _atom_site_label
 _atom_site_symmetry_multiplicity
 _atom_site_fract_x
 _atom_site_fract_y
 _atom_site_fract_z
 _atom_site_occupancy
  H  H0  6  0.12362201  0.67376144  0.08921821  1
  H  H1  6  0.13100208  0.45598600  0.43529154  1
  H  H2  6  0.14166609  0.76856912  0.35699961  1
  H  H3  6  0.14410002  0.37697396  0.16731801  1
  H  H4  6  0.24358848  0.68574414  0.16075990  1
  H  H5  6  0.24809635  0.56485945  0.36221820  1
  H  H6  6  0.24922904  0.73044480  0.31367506  1
  H  H7  6  0.25075879  0.52418939  0.20871355  1
  C  C8  6  0.14467022  0.64400160  0.15355422  1
  C  C9  6  0.14956187  0.50591376  0.37068503  1
  C  C10  6  0.15224273  0.69959634  0.32057253  1
  C  C11  6  0.15401274  0.45639291  0.20353026  1
  N  N12  6  -0.02015028  0.43969369  0.12175139  1
  N  N13  6  -0.01788198  0.54052526  0.40465653  1
  N  N14  6  0.04557875  0.75620930  0.20666984  1
  N  N15  6  0.05490625  0.29425239  0.31915086  1
  N  N16  6  0.09719892  0.68222610  0.22991011  1
  N  N17  6  0.09946653  0.51385521  0.14931300  1
  N  N18  6  0.10154807  0.58848209  0.37568420  1
  N  N19  6  0.10181044  0.41905053  0.29504739  1
  O  O20  6  -0.07725045  0.48881992  0.09759306  1
  O  O21  6  -0.07215588  0.43459928  0.42970632  1
  O  O22  6  -0.05882794  0.60912097  0.40456272  1
  O  O23  6  -0.05848992  0.33060987  0.12202895  1
  O  O24  6  0.01990187  0.75589163  0.12632164  1
  O  O25  6  0.02990577  0.80900273  0.26995053  1
  O  O26  6  0.03222123  0.26968646  0.39993904  1
  O  O27  6  0.03987835  0.22564089  0.25617640  1
