###############################################################################################
#
# CIF file generated by modified CIFWriter class 
# in pymatgen (v2025.03.10) https://pymatgen.org/
#
###############################################################################################
data_MACE-OFF23(L)_b9ab85a08f84098
_symmetry_space_group_name_H-M   P6_4
_cell_length_a   20.13187368
_cell_length_b   20.13187368
_cell_length_c   6.12845272
_cell_angle_alpha   90.00000000
_cell_angle_beta   90.00000000
_cell_angle_gamma   120.00000000
_symmetry_Int_Tables_number   172
_chemical_formula_moiety   'C4 H8 N8 O8'
_chemical_formula_sum   'H48 C24 N48 O48'
_cell_volume   2151.04682645
_cell_formula_units_Z   6
loop_
 _symmetry_equiv_pos_site_id
 _symmetry_equiv_pos_as_xyz
  1  'x, y, z'
  2  'x-y, x, z+2/3'
  3  '-y, x-y, z+1/3'
  4  '-x, -y, z'
  5  '-x+y, -x, z+2/3'
  6  'y, -x+y, z+1/3'
loop_
 _atom_site_type_symbol
 _atom_site_label
 _atom_site_symmetry_multiplicity
 _atom_site_fract_x
 _atom_site_fract_y
 _atom_site_fract_z
 _atom_site_occupancy
  H  H0  6  0.04198376  0.45297794  0.13469468  1
  H  H1  6  0.07061398  0.41623383  0.35531971  1
  H  H2  6  0.08345369  0.28319875  0.04631496  1
  H  H3  6  0.09475850  0.32603904  0.30713620  1
  H  H4  6  0.11708952  0.69718361  0.94037648  1
  H  H5  6  0.18196971  0.77500239  1.10723399  1
  H  H6  6  0.20284398  0.49551386  0.49117248  1
  H  H7  6  0.26117402  0.58608919  0.36980197  1
  C  C8  6  0.08751104  0.44487587  0.19766167  1
  C  C9  6  0.11502853  0.33552525  0.13919832  1
  C  C10  6  0.17006249  0.75151220  0.94264275  1
  C  C11  6  0.22198254  0.52619548  0.33724132  1
  N  N12  6  0.09799934  0.78046118  0.67201244  1
  N  N13  6  0.10005708  0.39441155  0.05795816  1
  N  N14  6  0.10754103  0.40935686  -0.16186237  1
  N  N15  6  0.14820517  0.58352147  0.20657131  1
  N  N16  6  0.15570942  0.51956737  0.22314875  1
  N  N17  6  0.16171531  0.80518849  0.80568908  1
  N  N18  6  0.21470200  0.67104623  0.77984003  1
  N  N19  6  0.23366003  0.74075594  0.88025204  1
  O  O20  6  0.05054985  0.71256236  0.67876628  1
  O  O21  6  0.08754466  0.57517852  0.14215882  1
  O  O22  6  0.09371114  0.82843581  0.56410470  1
  O  O23  6  0.09544811  0.45902451  -0.22727045  1
  O  O24  6  0.12634953  0.37131902  -0.27265157  1
  O  O25  6  0.15191294  0.63625130  0.69805615  1
  O  O26  6  0.20349524  0.64507296  0.25606169  1
  O  O27  6  0.26291783  0.65193170  0.78193162  1
