###############################################################################################
#
# CIF file generated by modified CIFWriter class 
# in pymatgen (v2025.03.10) https://pymatgen.org/
#
###############################################################################################
data_MACE-OFF23(L)_c3aed0416ce9e2
_symmetry_space_group_name_H-M   P3_221
_cell_length_a   6.85790364
_cell_length_b   6.85790364
_cell_length_c   50.35442661
_cell_angle_alpha   90.00000000
_cell_angle_beta   90.00000000
_cell_angle_gamma   120.00000000
_symmetry_Int_Tables_number   154
_chemical_formula_moiety   'C4 H8 N8 O8'
_chemical_formula_sum   'H48 C24 N48 O48'
_cell_volume   2050.93097087
_cell_formula_units_Z   6
loop_
 _symmetry_equiv_pos_site_id
 _symmetry_equiv_pos_as_xyz
  1  'x, y, z'
  2  '-y, x-y, z+2/3'
  3  '-x+y, -x, z+1/3'
  4  'y, x, -z'
  5  'x-y, -y, -z+1/3'
  6  '-x, -x+y, -z+2/3'
loop_
 _atom_site_type_symbol
 _atom_site_label
 _atom_site_symmetry_multiplicity
 _atom_site_fract_x
 _atom_site_fract_y
 _atom_site_fract_z
 _atom_site_occupancy
  H  H0  6  0.03050926  0.79890479  0.86001840  1
  H  H1  6  0.04051324  0.55159111  0.57747714  1
  H  H2  6  0.05444871  0.72602102  0.24096249  1
  H  H3  6  0.05942111  0.27266992  0.87557646  1
  H  H4  6  0.12594562  0.80862842  0.27435720  1
  H  H5  6  0.13761258  -0.23118027  0.11777268  1
  H  H6  6  0.22449348  0.70128785  0.85717110  1
  H  H7  6  0.24857566  0.71020776  0.55331866  1
  C  C8  6  -0.07415445  0.29357551  0.88432094  1
  C  C9  6  0.08915676  0.69462611  0.86915816  1
  C  C10  6  0.19106285  0.79300262  0.25537478  1
  C  C11  6  0.20839387  0.60103680  0.57061158  1
  N  N12  6  -0.14909475  0.38038677  0.92887489  1
  N  N13  6  -0.09585002  0.46230136  0.86937576  1
  N  N14  6  -0.01154440  0.34558673  0.91194843  1
  N  N15  6  0.08195789  0.85878777  0.91148537  1
  N  N16  6  0.18617788  0.78046215  0.89485224  1
  N  N17  6  0.26380886  0.54399041  0.28312686  1
  N  N18  6  0.26987076  0.58310266  0.46969061  1
  N  N19  6  0.27737804  0.64057924  0.25839128  1
  O  O20  6  -0.07916849  0.44372411  0.95092864  1
  O  O21  6  0.06212904  0.15210336  0.43015821  1
  O  O22  6  0.07345257  0.24075625  0.59959010  1
  O  O23  6  0.07933558  0.66675492  0.61784631  1
  O  O24  6  0.09158105  0.42914452  0.47726236  1
  O  O25  6  0.17743069  0.59316658  0.30078411  1
  O  O26  6  0.22153694  -0.46333800  0.13496945  1
  O  O27  6  0.32404307  0.65023882  0.41376486  1
