###############################################################################################
#
# CIF file generated by modified CIFWriter class 
# in pymatgen (v2025.03.10) https://pymatgen.org/
#
###############################################################################################
data_MACE-OFF23(L)_c4a9bc1d3dc1261
_symmetry_space_group_name_H-M   P31c
_cell_length_a   13.68559057
_cell_length_b   13.68559057
_cell_length_c   11.15065561
_cell_angle_alpha   90.00000000
_cell_angle_beta   90.00000000
_cell_angle_gamma   120.00000000
_symmetry_Int_Tables_number   159
_chemical_formula_moiety   'C4 H8 N8 O8'
_chemical_formula_sum   'H48 C24 N48 O48'
_cell_volume   1808.66494378
_cell_formula_units_Z   6
loop_
 _symmetry_equiv_pos_site_id
 _symmetry_equiv_pos_as_xyz
  1  'x, y, z'
  2  '-y, x-y, z'
  3  '-x+y, -x, z'
  4  'y, x, z+1/2'
  5  'x-y, -y, z+1/2'
  6  '-x, -x+y, z+1/2'
loop_
 _atom_site_type_symbol
 _atom_site_label
 _atom_site_symmetry_multiplicity
 _atom_site_fract_x
 _atom_site_fract_y
 _atom_site_fract_z
 _atom_site_occupancy
  H  H0  6  0.04051364  0.45277157  0.45820867  1
  H  H1  6  0.04880431  0.38499166  0.81625313  1
  H  H2  6  0.06725305  0.66497089  0.75479647  1
  H  H3  6  0.09618192  0.74161645  0.39447160  1
  H  H4  6  0.17068861  0.50924932  0.77311271  1
  H  H5  6  0.17584804  0.53273813  0.51986091  1
  H  H6  6  0.19458782  0.68443383  0.69403025  1
  H  H7  6  0.19749614  0.70601479  0.43778721  1
  C  C8  6  0.09930718  0.45049254  0.52113260  1
  C  C9  6  0.10834278  0.42458632  0.74397051  1
  C  C10  6  0.13365608  0.71354482  0.69109694  1
  C  C11  6  0.15184205  0.74812704  0.46678134  1
  N  N12  6  -0.06749996  0.38852834  0.64508439  1
  N  N13  6  -0.03348298  0.63956867  0.56404818  1
  N  N14  6  0.04903994  0.43218110  0.63899429  1
  N  N15  6  0.05697618  0.25833677  0.48317995  1
  N  N16  6  0.08406252  0.69273631  0.57265532  1
  N  N17  6  0.11121093  0.24957758  0.73883386  1
  N  N18  6  0.13546223  0.37178321  0.48521256  1
  N  N19  6  0.16859301  0.36536726  0.72386371  1
  O  O20  6  -0.11473916  0.39038699  0.55452760  1
  O  O21  6  -0.11131433  0.35724004  0.74276168  1
  O  O22  6  -0.08708970  0.60098481  0.65508613  1
  O  O23  6  -0.07249199  0.63172079  0.46472571  1
  O  O24  6  -0.04138846  0.23419559  0.48872120  1
  O  O25  6  0.00920378  0.20447806  0.74307348  1
  O  O26  6  0.03710626  0.83222536  0.74056948  1
  O  O27  6  0.09293074  0.19427046  0.47831256  1
