###############################################################################################
#
# CIF file generated by modified CIFWriter class 
# in pymatgen (v2025.03.10) https://pymatgen.org/
#
###############################################################################################
data_MACE-OFF23(L)_c549a8d3a81320e
_symmetry_space_group_name_H-M   P6_4
_cell_length_a   13.26693496
_cell_length_b   13.26693496
_cell_length_c   12.60317278
_cell_angle_alpha   90.00000000
_cell_angle_beta   90.00000000
_cell_angle_gamma   120.00000000
_symmetry_Int_Tables_number   172
_chemical_formula_moiety   'C4 H8 N8 O8'
_chemical_formula_sum   'H48 C24 N48 O48'
_cell_volume   1921.10774297
_cell_formula_units_Z   6
loop_
 _symmetry_equiv_pos_site_id
 _symmetry_equiv_pos_as_xyz
  1  'x, y, z'
  2  'x-y, x, z+2/3'
  3  '-y, x-y, z+1/3'
  4  '-x, -y, z'
  5  '-x+y, -x, z+2/3'
  6  'y, -x+y, z+1/3'
loop_
 _atom_site_type_symbol
 _atom_site_label
 _atom_site_symmetry_multiplicity
 _atom_site_fract_x
 _atom_site_fract_y
 _atom_site_fract_z
 _atom_site_occupancy
  H  H0  6  -0.03226149  0.31620032  0.27861752  1
  H  H1  6  0.01700609  0.85705047  0.82210226  1
  H  H2  6  0.04271835  0.78637875  0.92848318  1
  H  H3  6  0.05089883  0.58825950  0.77045653  1
  H  H4  6  0.05804784  0.63835290  0.90218218  1
  H  H5  6  0.10248225  0.35932300  0.34083701  1
  H  H6  6  0.23862321  0.62196831  0.22267627  1
  H  H7  6  0.24507725  0.52354439  0.31270746  1
  C  C8  6  0.05696345  0.33828260  0.26508569  1
  C  C9  6  0.07943192  0.83687520  0.85686652  1
  C  C10  6  0.10026825  0.65878624  0.82502444  1
  C  C11  6  0.23390652  0.53838262  0.22981013  1
  N  N12  6  -0.05048559  0.14806113  0.18170504  1
  N  N13  6  0.05529000  0.23781452  0.21986464  1
  N  N14  6  0.08068853  0.44127803  0.10054246  1
  N  N15  6  0.10177698  0.76258947  0.78851657  1
  N  N16  6  0.11696224  0.78585762  0.68139638  1
  N  N17  6  0.11875292  0.44401315  0.20161859  1
  N  N18  6  0.21568054  0.67377473  0.83368870  1
  N  N19  6  0.24168740  0.59914323  0.77999536  1
  O  O20  6  -0.13797026  0.14869347  0.20919468  1
  O  O21  6  -0.04718606  0.07464463  0.12792529  1
  O  O22  6  -0.01067833  0.35501325  0.07582729  1
  O  O23  6  0.10938885  0.86871430  0.65190527  1
  O  O24  6  0.13926016  0.52336090  0.04339135  1
  O  O25  6  0.14055403  0.72475573  0.62835365  1
  O  O26  6  0.16274585  0.51752935  0.73435082  1
  O  O27  6  0.27750353  0.65849358  0.45136154  1
