###############################################################################################
#
# CIF file generated by modified CIFWriter class 
# in pymatgen (v2025.03.10) https://pymatgen.org/
#
###############################################################################################
data_MACE-OFF23(L)_c5e248644a4a8f6
_symmetry_space_group_name_H-M   P-3
_cell_length_a   11.55334522
_cell_length_b   11.55334522
_cell_length_c   14.80447372
_cell_angle_alpha   90.00000000
_cell_angle_beta   90.00000000
_cell_angle_gamma   120.00000000
_symmetry_Int_Tables_number   147
_chemical_formula_moiety   'C4 H8 N8 O8'
_chemical_formula_sum   'H48 C24 N48 O48'
_cell_volume   1711.35105031
_cell_formula_units_Z   6
loop_
 _symmetry_equiv_pos_site_id
 _symmetry_equiv_pos_as_xyz
  1  'x, y, z'
  2  '-x, -y, -z'
  3  '-y, x-y, z'
  4  'y, -x+y, -z'
  5  '-x+y, -x, z'
  6  'x-y, x, -z'
loop_
 _atom_site_type_symbol
 _atom_site_label
 _atom_site_symmetry_multiplicity
 _atom_site_fract_x
 _atom_site_fract_y
 _atom_site_fract_z
 _atom_site_occupancy
  H  H0  6  -0.00024899  0.42911184  0.11423295  1
  H  H1  6  0.00074586  0.42797677  0.38444894  1
  H  H2  6  0.04816993  0.80121925  0.38621233  1
  H  H3  6  0.05190487  0.80421594  0.11584525  1
  H  H4  6  0.13229242  0.55961404  0.32367268  1
  H  H5  6  0.13251249  0.55906115  0.17519420  1
  H  H6  6  0.15880706  0.76829863  0.32468733  1
  H  H7  6  0.15966099  0.76805042  0.17816714  1
  C  C8  6  0.02475122  0.50605832  0.33547523  1
  C  C9  6  0.02491820  0.50677586  0.16372375  1
  C  C10  6  0.05380506  0.73581956  0.33643292  1
  C  C11  6  0.05527053  0.73707747  0.16520727  1
  N  N12  6  -0.16012660  0.33507680  0.24932186  1
  N  N13  6  -0.09446377  0.78695706  0.25052321  1
  N  N14  6  -0.08533058  0.56957656  0.44924523  1
  N  N15  6  -0.08403549  0.57336420  0.05105428  1
  N  N16  6  -0.03489782  0.44681239  0.24949919  1
  N  N17  6  -0.00945027  0.60093380  0.37114187  1
  N  N18  6  -0.00807567  0.60302577  0.12906875  1
  N  N19  6  0.00130393  0.74904642  0.25070256  1
  O  O20  6  -0.21075965  0.28935369  0.32195602  1
  O  O21  6  -0.21041382  0.28951688  0.17658852  1
  O  O22  6  -0.13593674  0.45551190  0.47659804  1
  O  O23  6  -0.13563546  0.45958099  0.02300634  1
  O  O24  6  -0.09431155  0.65873814  0.48520903  1
  O  O25  6  -0.09211160  0.66355300  0.01598541  1
  O  O26  6  0.06462122  -0.13418481  0.67680322  1
  O  O27  6  0.06492424  -0.13331043  0.82231006  1
