###############################################################################################
#
# CIF file generated by modified CIFWriter class 
# in pymatgen (v2025.03.10) https://pymatgen.org/
#
###############################################################################################
data_MACE-OFF23(L)_cd613e3d8f16adf
_symmetry_space_group_name_H-M   P-3
_cell_length_a   15.22984337
_cell_length_b   15.22984337
_cell_length_c   9.52587881
_cell_angle_alpha   90.00000000
_cell_angle_beta   90.00000000
_cell_angle_gamma   120.00000000
_symmetry_Int_Tables_number   147
_chemical_formula_moiety   'C4 H8 N8 O8'
_chemical_formula_sum   'H48 C24 N48 O48'
_cell_volume   1913.49158838
_cell_formula_units_Z   6
loop_
 _symmetry_equiv_pos_site_id
 _symmetry_equiv_pos_as_xyz
  1  'x, y, z'
  2  '-x, -y, -z'
  3  '-y, x-y, z'
  4  'y, -x+y, -z'
  5  '-x+y, -x, z'
  6  'x-y, x, -z'
loop_
 _atom_site_type_symbol
 _atom_site_label
 _atom_site_symmetry_multiplicity
 _atom_site_fract_x
 _atom_site_fract_y
 _atom_site_fract_z
 _atom_site_occupancy
  H  H0  6  -0.21413364  0.26191151  0.82452794  1
  H  H1  6  -0.17902789  0.26859803  1.00353800  1
  H  H2  6  -0.12972223  0.38798681  0.69082920  1
  H  H3  6  -0.12244669  0.26891406  0.54444480  1
  H  H4  6  -0.01681352  0.49568440  0.74839723  1
  H  H5  6  -0.00589777  0.29347662  0.47213404  1
  H  H6  6  0.07340060  0.21637762  0.25573650  1
  H  H7  6  0.14092824  0.34177821  0.32309557  1
  C  C8  6  -0.15575900  0.26785301  0.89645928  1
  C  C9  6  -0.13756572  0.14691329  0.73728599  1
  C  C10  6  -0.05362433  0.41478081  0.73129064  1
  C  C11  6  -0.04411968  0.29180692  0.56845095  1
  N  N12  6  -0.14303584  0.18080214  0.87773953  1
  N  N13  6  -0.06563873  0.36218005  0.86166569  1
  N  N14  6  -0.04671023  0.21720736  0.66350782  1
  N  N15  6  0.00374023  0.39319257  0.62910006  1
  N  N16  6  0.00982617  0.40648821  0.96011145  1
  N  N17  6  0.03233073  0.19727345  0.65817414  1
  N  N18  6  0.07982851  0.47271256  0.55746089  1
  N  N19  6  0.11653989  0.27809683  0.01076213  1
  O  O20  6  -0.00453490  0.36372960  1.07233856  1
  O  O21  6  0.02401459  0.12621175  0.72383763  1
  O  O22  6  0.04015208  0.19860384  0.03259323  1
  O  O23  6  0.08509686  0.48524648  0.92786061  1
  O  O24  6  0.10266009  0.55819448  0.59367915  1
  O  O25  6  0.10468754  0.25510044  0.58638941  1
  O  O26  6  0.12047593  0.45340196  0.46172658  1
  O  O27  6  0.14100281  0.32139211  -0.10214497  1
