###############################################################################################
#
# CIF file generated by modified CIFWriter class 
# in pymatgen (v2025.03.10) https://pymatgen.org/
#
###############################################################################################
data_MACE-OFF23(L)_cdf844007295e42
_symmetry_space_group_name_H-M   P-3
_cell_length_a   15.23600162
_cell_length_b   15.23600162
_cell_length_c   10.57955784
_cell_angle_alpha   90.00000000
_cell_angle_beta   90.00000000
_cell_angle_gamma   120.00000000
_symmetry_Int_Tables_number   147
_chemical_formula_moiety   'C4 H8 N8 O8'
_chemical_formula_sum   'H48 C24 N48 O48'
_cell_volume   2126.86619838
_cell_formula_units_Z   6
loop_
 _symmetry_equiv_pos_site_id
 _symmetry_equiv_pos_as_xyz
  1  'x, y, z'
  2  '-x, -y, -z'
  3  '-y, x-y, z'
  4  'y, -x+y, -z'
  5  '-x+y, -x, z'
  6  'x-y, x, -z'
loop_
 _atom_site_type_symbol
 _atom_site_label
 _atom_site_symmetry_multiplicity
 _atom_site_fract_x
 _atom_site_fract_y
 _atom_site_fract_z
 _atom_site_occupancy
  H  H0  6  -0.18829371  0.30066514  0.92271905  1
  H  H1  6  -0.16898988  0.26654117  0.59136590  1
  H  H2  6  -0.10010301  0.17393132  0.58922641  1
  H  H3  6  -0.09856640  0.39800087  0.55960955  1
  H  H4  6  -0.04964619  0.14145416  0.91060016  1
  H  H5  6  0.02716031  0.22499443  0.54181710  1
  H  H6  6  0.12256419  0.26653128  0.19989449  1
  H  H7  6  0.21024767  0.42612165  0.19762128  1
  C  C8  6  -0.15691214  0.28019193  0.84405604  1
  C  C9  6  -0.10489810  0.33845541  0.62119568  1
  C  C10  6  -0.06961485  0.17700126  0.83644558  1
  C  C11  6  -0.02198197  0.22914261  0.61195669  1
  N  N12  6  -0.13453360  0.44225943  0.77270468  1
  N  N13  6  -0.12177497  0.36000217  0.74965933  1
  N  N14  6  -0.07844102  0.26033911  0.88510048  1
  N  N15  6  -0.01698240  0.32635637  0.60813398  1
  N  N16  6  -0.01675310  0.31612176  0.98374114  1
  N  N17  6  0.00380417  0.20607415  0.73485596  1
  N  N18  6  0.07488450  0.17553965  0.74278303  1
  N  N19  6  0.07681348  0.41195725  0.59795395  1
  O  O20  6  -0.16415397  0.44820432  0.87672870  1
  O  O21  6  -0.11564600  0.50239620  0.68674582  1
  O  O22  6  -0.03510565  0.37654821  1.03381642  1
  O  O23  6  0.05119033  0.29984986  1.01084626  1
  O  O24  6  0.05827649  0.87878421  0.64711831  1
  O  O25  6  0.05984850  0.91316899  0.84463956  1
  O  O26  6  0.08013608  0.49273722  0.60675675  1
  O  O27  6  0.14841075  0.39886081  0.58262405  1
