###############################################################################################
#
# CIF file generated by modified CIFWriter class 
# in pymatgen (v2025.03.10) https://pymatgen.org/
#
###############################################################################################
data_MACE-OFF23(L)_ce6c4e0493d935b
_symmetry_space_group_name_H-M   P3_221
_cell_length_a   7.57412854
_cell_length_b   7.57412854
_cell_length_c   38.17706995
_cell_angle_alpha   90.00000000
_cell_angle_beta   90.00000000
_cell_angle_gamma   120.00000000
_symmetry_Int_Tables_number   154
_chemical_formula_moiety   'C4 H8 N8 O8'
_chemical_formula_sum   'H48 C24 N48 O48'
_cell_volume   1896.69966864
_cell_formula_units_Z   6
loop_
 _symmetry_equiv_pos_site_id
 _symmetry_equiv_pos_as_xyz
  1  'x, y, z'
  2  '-y, x-y, z+2/3'
  3  '-x+y, -x, z+1/3'
  4  'y, x, -z'
  5  'x-y, -y, -z+1/3'
  6  '-x, -x+y, -z+2/3'
loop_
 _atom_site_type_symbol
 _atom_site_label
 _atom_site_symmetry_multiplicity
 _atom_site_fract_x
 _atom_site_fract_y
 _atom_site_fract_z
 _atom_site_occupancy
  H  H0  6  -0.00594434  0.13160984  0.64232837  1
  H  H1  6  0.01215614  0.84917263  0.88551929  1
  H  H2  6  0.02378464  -0.10247719  0.46346645  1
  H  H3  6  0.04245636  0.79465146  0.94707863  1
  H  H4  6  0.15929394  0.67154930  0.88144040  1
  H  H5  6  0.20350754  0.63455749  0.94397456  1
  H  H6  6  0.23580566  0.61020210  0.52071993  1
  H  H7  6  0.26405967  0.71772753  0.62747673  1
  C  C8  6  -0.00086304  0.14450880  0.55396922  1
  C  C9  6  0.04947993  0.21445848  0.61802484  1
  C  C10  6  0.21007046  0.52787884  0.54496966  1
  C  C11  6  0.23683021  0.59523929  0.60973611  1
  N  N12  6  -0.15415430  0.33960785  0.53472147  1
  N  N13  6  -0.08486302  0.41853260  0.64179198  1
  N  N14  6  -0.07787116  0.08938344  0.58950902  1
  N  N15  6  0.01955956  0.33661626  0.54368145  1
  N  N16  6  0.05805449  0.40879261  0.62033926  1
  N  N17  6  0.10561757  1.21783636  0.92949555  1
  N  N18  6  0.16413363  0.38972915  0.23485528  1
  N  N19  6  0.22376611  0.65636003  0.57413535  1
  O  O20  6  -0.23472389  0.25789520  0.64856181  1
  O  O21  6  -0.13402014  0.50368055  0.52668803  1
  O  O22  6  -0.04826923  0.58626587  0.65136025  1
  O  O23  6  0.07119182  0.29012725  0.26043970  1
  O  O24  6  0.07805063  1.30001125  0.90432628  1
  O  O25  6  0.08566237  1.25208565  0.95981216  1
  O  O26  6  0.10743169  0.34449478  0.20484036  1
  O  O27  6  0.17856307  -0.31291100  0.46426539  1
