###############################################################################################
#
# CIF file generated by modified CIFWriter class 
# in pymatgen (v2025.03.10) https://pymatgen.org/
#
###############################################################################################
data_MACE-OFF23(L)_cea0e43c77f510b
_symmetry_space_group_name_H-M   P6
_cell_length_a   19.01817918
_cell_length_b   19.01817918
_cell_length_c   6.52647746
_cell_angle_alpha   90.00000000
_cell_angle_beta   90.00000000
_cell_angle_gamma   120.00000000
_symmetry_Int_Tables_number   168
_chemical_formula_moiety   'C4 H8 N8 O8'
_chemical_formula_sum   'H48 C24 N48 O48'
_cell_volume   2044.31278174
_cell_formula_units_Z   6
loop_
 _symmetry_equiv_pos_site_id
 _symmetry_equiv_pos_as_xyz
  1  'x, y, z'
  2  'x-y, x, z'
  3  '-y, x-y, z'
  4  '-x, -y, z'
  5  '-x+y, -x, z'
  6  'y, -x+y, z'
loop_
 _atom_site_type_symbol
 _atom_site_label
 _atom_site_symmetry_multiplicity
 _atom_site_fract_x
 _atom_site_fract_y
 _atom_site_fract_z
 _atom_site_occupancy
  H  H0  6  0.05531322  0.41607131  0.39987362  1
  H  H1  6  0.05649972  0.68092616  0.15884562  1
  H  H2  6  0.07698128  0.26961072  0.01433232  1
  H  H3  6  0.08610964  0.74679684  0.37295621  1
  H  H4  6  0.09300597  0.35313717  0.48930972  1
  H  H5  6  0.09725518  0.26920118  0.27927973  1
  H  H6  6  0.18017265  0.75853858  0.56913872  1
  H  H7  6  0.22732658  0.70050925  0.52409173  1
  C  C8  6  0.10405851  0.40257177  0.38579329  1
  C  C9  6  0.10581384  0.73514413  0.22636781  1
  C  C10  6  0.11637484  0.30488628  0.13878901  1
  C  C11  6  0.21795134  0.74803483  0.46295544  1
  N  N12  6  0.09287749  0.78653940  -0.10805042  1
  N  N13  6  0.10627593  0.37392254  0.18126083  1
  N  N14  6  0.11476343  0.42573191  0.02208722  1
  N  N15  6  0.12360577  0.80259049  0.09026158  1
  N  N16  6  0.17373210  0.72447093  0.27171531  1
  N  N17  6  0.17600855  0.54044107  0.51828205  1
  N  N18  6  0.17892079  0.47482285  0.43680143  1
  N  N19  6  0.19685222  0.68725844  0.12500051  1
  O  O20  6  0.03898535  0.71806846  -0.14521193  1
  O  O21  6  0.09791682  0.47761758  0.05900901  1
  O  O22  6  0.11258507  0.54095469  0.49987251  1
  O  O23  6  0.11875726  0.84279015  -0.22791069  1
  O  O24  6  0.13860838  0.41432475  -0.13973036  1
  O  O25  6  0.16351299  0.67627602  -0.03958994  1
  O  O26  6  0.23725173  0.59279885  0.59819353  1
  O  O27  6  0.24825970  0.67131694  0.17476262  1
