###############################################################################################
#
# CIF file generated by modified CIFWriter class 
# in pymatgen (v2025.03.10) https://pymatgen.org/
#
###############################################################################################
data_MACE-OFF23(L)_cf391a8535d5752
_symmetry_space_group_name_H-M   P3_221
_cell_length_a   10.20786090
_cell_length_b   10.20786090
_cell_length_c   23.93028957
_cell_angle_alpha   90.00000000
_cell_angle_beta   90.00000000
_cell_angle_gamma   120.00000000
_symmetry_Int_Tables_number   154
_chemical_formula_moiety   'C4 H8 N8 O8'
_chemical_formula_sum   'H48 C24 N48 O48'
_cell_volume   2159.47446333
_cell_formula_units_Z   6
loop_
 _symmetry_equiv_pos_site_id
 _symmetry_equiv_pos_as_xyz
  1  'x, y, z'
  2  '-y, x-y, z+2/3'
  3  '-x+y, -x, z+1/3'
  4  'y, x, -z'
  5  'x-y, -y, -z+1/3'
  6  '-x, -x+y, -z+2/3'
loop_
 _atom_site_type_symbol
 _atom_site_label
 _atom_site_symmetry_multiplicity
 _atom_site_fract_x
 _atom_site_fract_y
 _atom_site_fract_z
 _atom_site_occupancy
  H  H0  6  0.01315488  0.35616656  0.62450195  1
  H  H1  6  0.01619838  0.42693391  0.28239603  1
  H  H2  6  0.16884784  0.61020471  0.29692331  1
  H  H3  6  0.19393348  0.70661276  0.73797674  1
  H  H4  6  0.20837614  0.63399468  0.50296367  1
  H  H5  6  0.21232483  0.46419711  0.62316413  1
  H  H6  6  0.29074461  0.68241688  0.88761334  1
  H  H7  6  0.31118503  0.64212040  0.36562878  1
  C  C8  6  0.10907935  0.46937639  0.62767125  1
  C  C9  6  0.13795988  0.49707073  0.28283946  1
  C  C10  6  0.22140534  0.68218991  0.69712764  1
  C  C11  6  0.24026582  0.65044168  0.54652147  1
  N  N12  6  -0.02023162  0.56390291  0.57008747  1
  N  N13  6  -0.01553350  0.45148365  0.71632808  1
  N  N14  6  0.08867664  0.40911545  0.18674103  1
  N  N15  6  0.10733470  0.53002899  0.68203911  1
  N  N16  6  0.11074872  0.56344106  0.58201111  1
  N  N17  6  0.11731308  0.82096445  0.65106106  1
  N  N18  6  0.18944168  0.50624507  0.22601773  1
  N  N19  6  0.20344061  0.44134421  0.32388524  1
  O  O20  6  -0.12287900  0.50070132  0.60334590  1
  O  O21  6  -0.11335354  0.32673531  0.70084248  1
  O  O22  6  -0.04472900  0.34057006  0.19947099  1
  O  O23  6  -0.02207156  0.62973412  0.52823824  1
  O  O24  6  -0.01709289  0.50924356  0.76042960  1
  O  O25  6  0.01306397  0.75552114  0.68316228  1
  O  O26  6  0.09565116  0.22172589  0.28007564  1
  O  O27  6  0.13801355  0.40430031  0.14126552  1
