###############################################################################################
#
# CIF file generated by modified CIFWriter class 
# in pymatgen (v2025.03.10) https://pymatgen.org/
#
###############################################################################################
data_MACE-OFF23(L)_d1565f1ed8b2682
_symmetry_space_group_name_H-M   P6_4
_cell_length_a   15.72661641
_cell_length_b   15.72661641
_cell_length_c   8.51541984
_cell_angle_alpha   90.00000000
_cell_angle_beta   90.00000000
_cell_angle_gamma   120.00000000
_symmetry_Int_Tables_number   172
_chemical_formula_moiety   'C4 H8 N8 O8'
_chemical_formula_sum   'H48 C24 N48 O48'
_cell_volume   1823.92629490
_cell_formula_units_Z   6
loop_
 _symmetry_equiv_pos_site_id
 _symmetry_equiv_pos_as_xyz
  1  'x, y, z'
  2  'x-y, x, z+2/3'
  3  '-y, x-y, z+1/3'
  4  '-x, -y, z'
  5  '-x+y, -x, z+2/3'
  6  'y, -x+y, z+1/3'
loop_
 _atom_site_type_symbol
 _atom_site_label
 _atom_site_symmetry_multiplicity
 _atom_site_fract_x
 _atom_site_fract_y
 _atom_site_fract_z
 _atom_site_occupancy
  H  H0  6  0.02392399  0.63650458  0.74761671  1
  H  H1  6  0.02766856  0.72210368  0.61099249  1
  H  H2  6  0.06698276  0.67753757  0.98693226  1
  H  H3  6  0.08925241  0.79355082  1.04941401  1
  H  H4  6  0.18486573  0.61414392  0.73148828  1
  H  H5  6  0.22691919  0.56667677  0.33607852  1
  H  H6  6  0.22873735  0.66350430  0.96224279  1
  H  H7  6  0.26336397  0.67848874  0.57437294  1
  C  C8  6  0.07177170  0.70581345  0.68878474  1
  C  C9  6  0.11619747  0.75638708  0.97494373  1
  C  C10  6  0.21871105  0.68299088  0.66684670  1
  C  C11  6  0.25718483  0.52546424  0.28186682  1
  N  N12  6  0.11421471  0.77871374  0.81096406  1
  N  N13  6  0.12417922  0.28435823  0.10218381  1
  N  N14  6  0.13614527  0.69495221  0.43404507  1
  N  N15  6  0.14568247  0.69990770  0.59499668  1
  N  N16  6  0.14762085  0.48545302  0.06157794  1
  N  N17  6  0.15284674  0.40994496  0.48120162  1
  N  N18  6  0.21431643  0.78251747  1.02546827  1
  N  N19  6  0.24171542  0.52056586  0.11352737  1
  O  O20  6  0.06488370  0.26041993  0.20764520  1
  O  O21  6  0.06608563  0.69499172  0.37730450  1
  O  O22  6  0.08391657  0.46004972  0.15976770  1
  O  O23  6  0.10615478  0.27056139  -0.03722870  1
  O  O24  6  0.12790837  0.33420918  0.55177567  1
  O  O25  6  0.12799871  0.46972232  0.51349836  1
  O  O26  6  0.13539189  0.48235263  -0.08007527  1
  O  O27  6  0.19987575  0.68970690  0.35930027  1
