###############################################################################################
#
# CIF file generated by modified CIFWriter class 
# in pymatgen (v2025.03.10) https://pymatgen.org/
#
###############################################################################################
data_MACE-OFF23(L)_d3addcc2c33be0a
_symmetry_space_group_name_H-M   P-3
_cell_length_a   16.74291344
_cell_length_b   16.74291344
_cell_length_c   7.53637962
_cell_angle_alpha   90.00000000
_cell_angle_beta   90.00000000
_cell_angle_gamma   120.00000000
_symmetry_Int_Tables_number   147
_chemical_formula_moiety   'C4 H8 N8 O8'
_chemical_formula_sum   'H48 C24 N48 O48'
_cell_volume   1829.59709352
_cell_formula_units_Z   6
loop_
 _symmetry_equiv_pos_site_id
 _symmetry_equiv_pos_as_xyz
  1  'x, y, z'
  2  '-x, -y, -z'
  3  '-y, x-y, z'
  4  'y, -x+y, -z'
  5  '-x+y, -x, z'
  6  'x-y, x, -z'
loop_
 _atom_site_type_symbol
 _atom_site_label
 _atom_site_symmetry_multiplicity
 _atom_site_fract_x
 _atom_site_fract_y
 _atom_site_fract_z
 _atom_site_occupancy
  H  H0  6  -0.06687895  0.70114877  0.75675012  1
  H  H1  6  -0.04926443  0.60522958  0.60607380  1
  H  H2  6  -0.02966374  0.60163772  0.99440500  1
  H  H3  6  0.01216593  0.52350971  0.84033945  1
  H  H4  6  0.01432446  0.82045663  0.76554001  1
  H  H5  6  0.02437937  0.65389668  0.42242958  1
  H  H6  6  0.05184431  0.67154630  1.15645077  1
  H  H7  6  0.12908160  0.55466544  0.80460741  1
  C  C8  6  0.00493241  0.75210548  0.78168306  1
  C  C9  6  0.02235646  0.64601366  0.56475543  1
  C  C10  6  0.03570454  0.66468247  1.01683763  1
  C  C11  6  0.07954394  0.57817110  0.79684172  1
  N  N12  6  0.02723481  0.74255509  0.96366759  1
  N  N13  6  0.05749220  0.73434632  0.65181693  1
  N  N14  6  0.05932466  0.81660946  1.07895132  1
  N  N15  6  0.07120143  0.59808237  0.61218244  1
  N  N16  6  0.10405896  0.65406485  0.91640210  1
  N  N17  6  0.12344166  0.58526812  0.48569691  1
  N  N18  6  0.14403658  0.80413817  0.60791263  1
  N  N19  6  0.19448869  0.72366240  0.92130411  1
  O  O20  6  0.06999862  0.80241340  1.23325546  1
  O  O21  6  0.07175537  0.88885117  1.02017620  1
  O  O22  6  0.11119127  0.59777564  0.33111302  1
  O  O23  6  0.12435600  0.29718288  0.68942286  1
  O  O24  6  0.17373457  0.55749364  0.53518257  1
  O  O25  6  0.18510217  0.78688744  0.49604120  1
  O  O26  6  0.21315040  0.42642686  1.02320642  1
  O  O27  6  0.24717575  0.71704471  0.82045757  1
