###############################################################################################
#
# CIF file generated by modified CIFWriter class 
# in pymatgen (v2025.03.10) https://pymatgen.org/
#
###############################################################################################
data_MACE-OFF23(L)_d45c0a650a36289
_symmetry_space_group_name_H-M   P3_121
_cell_length_a   7.61328503
_cell_length_b   7.61328503
_cell_length_c   44.08195320
_cell_angle_alpha   90.00000000
_cell_angle_beta   90.00000000
_cell_angle_gamma   120.00000000
_symmetry_Int_Tables_number   152
_chemical_formula_moiety   'C4 H8 N8 O8'
_chemical_formula_sum   'H48 C24 N48 O48'
_cell_volume   2212.76676336
_cell_formula_units_Z   6
loop_
 _symmetry_equiv_pos_site_id
 _symmetry_equiv_pos_as_xyz
  1  'x, y, z'
  2  '-y, x-y, z+1/3'
  3  '-x+y, -x, z+2/3'
  4  'y, x, -z'
  5  'x-y, -y, -z+2/3'
  6  '-x, -x+y, -z+1/3'
loop_
 _atom_site_type_symbol
 _atom_site_label
 _atom_site_symmetry_multiplicity
 _atom_site_fract_x
 _atom_site_fract_y
 _atom_site_fract_z
 _atom_site_occupancy
  H  H0  6  -0.20488546  0.48657374  0.88444162  1
  H  H1  6  -0.10107755  0.36249840  0.86332338  1
  H  H2  6  -0.04641849  0.47310129  0.54477145  1
  H  H3  6  0.02892352  0.17487050  0.89172976  1
  H  H4  6  0.05521112  0.71654448  0.52840054  1
  H  H5  6  0.05598050  0.21168949  0.93149879  1
  H  H6  6  0.14876920  0.53627540  0.83582693  1
  H  H7  6  0.19661806  0.48503795  0.17020206  1
  C  C8  6  -0.07585121  0.46483934  0.88214489  1
  C  C9  6  0.07336836  0.28608587  0.90990123  1
  C  C10  6  0.08942010  0.61890845  0.54211908  1
  C  C11  6  0.23746988  0.66728922  0.85025197  1
  N  N12  6  -0.20544709  0.31578455  0.93185689  1
  N  N13  6  -0.05581089  0.37616443  0.90987266  1
  N  N14  6  0.10308167  0.65542820  0.87428080  1
  N  N15  6  0.11249573  0.83080586  0.88509395  1
  N  N16  6  0.15361630  0.71762559  0.57114671  1
  N  N17  6  0.15445464  0.60275302  0.59544254  1
  N  N18  6  0.17426343  0.77368177  0.19521182  1
  N  N19  6  0.23885701  0.58883078  0.52588451  1
  O  O20  6  -0.19081062  0.22888612  0.95377977  1
  O  O21  6  0.00504743  0.81101867  0.90644036  1
  O  O22  6  0.01139664  0.23996235  0.20573098  1
  O  O23  6  0.01419787  0.61835679  0.19813569  1
  O  O24  6  0.05786541  0.25348565  0.52623918  1
  O  O25  6  0.11895721  0.43276244  0.58933487  1
  O  O26  6  0.19337485  0.68281360  0.62001258  1
  O  O27  6  0.30480576  0.64311847  0.73932894  1
