###############################################################################################
#
# CIF file generated by modified CIFWriter class 
# in pymatgen (v2025.03.10) https://pymatgen.org/
#
###############################################################################################
data_MACE-OFF23(L)_d5021cdf1bf7e3
_symmetry_space_group_name_H-M   P3_221
_cell_length_a   11.87738742
_cell_length_b   11.87738742
_cell_length_c   13.78339244
_cell_angle_alpha   90.00000000
_cell_angle_beta   90.00000000
_cell_angle_gamma   120.00000000
_symmetry_Int_Tables_number   154
_chemical_formula_moiety   'C4 H8 N8 O8'
_chemical_formula_sum   'H48 C24 N48 O48'
_cell_volume   1683.94769659
_cell_formula_units_Z   6
loop_
 _symmetry_equiv_pos_site_id
 _symmetry_equiv_pos_as_xyz
  1  'x, y, z'
  2  '-y, x-y, z+2/3'
  3  '-x+y, -x, z+1/3'
  4  'y, x, -z'
  5  'x-y, -y, -z+1/3'
  6  '-x, -x+y, -z+2/3'
loop_
 _atom_site_type_symbol
 _atom_site_label
 _atom_site_symmetry_multiplicity
 _atom_site_fract_x
 _atom_site_fract_y
 _atom_site_fract_z
 _atom_site_occupancy
  H  H0  6  0.02310777  0.83602460  0.47864440  1
  H  H1  6  0.06937892  0.52242950  0.44286280  1
  H  H2  6  0.09764861  0.30121842  0.40048484  1
  H  H3  6  0.12486903  0.39898974  0.29535647  1
  H  H4  6  0.15172985  0.32943862  0.15492983  1
  H  H5  6  0.20261428  0.67497910  0.47700044  1
  H  H6  6  0.22621531  0.57327348  0.70732286  1
  H  H7  6  0.29598684  0.69718099  0.61823394  1
  C  C8  6  0.07774207  0.79668332  0.51348909  1
  C  C9  6  0.10333401  0.60123917  0.49442108  1
  C  C10  6  0.16484398  0.35376770  0.34226340  1
  C  C11  6  0.20862697  0.63511163  0.65953200  1
  N  N12  6  -0.08155037  0.60718396  0.42299561  1
  N  N13  6  -0.01178037  0.84306550  0.65668250  1
  N  N14  6  0.00864491  0.43761449  0.62098511  1
  N  N15  6  0.02337920  0.66123664  0.48549397  1
  N  N16  6  0.08033740  0.81522125  0.61697821  1
  N  N17  6  0.10897649  0.55654139  0.59055056  1
  N  N18  6  0.16213652  0.69788036  0.81723373  1
  N  N19  6  0.17762119  0.71762965  0.71785473  1
  O  O20  6  -0.13075387  0.67105401  0.40145200  1
  O  O21  6  -0.11733729  0.49739773  0.39353929  1
  O  O22  6  -0.07855379  0.37917408  0.56202976  1
  O  O23  6  0.01110077  0.89031486  0.73687521  1
  O  O24  6  0.01498423  0.40148504  0.70095989  1
  O  O25  6  0.07808734  0.18311277  0.72638601  1
  O  O26  6  0.14205719  0.77254032  0.86380012  1
  O  O27  6  0.16878230  0.60656040  0.85022763  1
