###############################################################################################
#
# CIF file generated by modified CIFWriter class 
# in pymatgen (v2025.03.10) https://pymatgen.org/
#
###############################################################################################
data_MACE-OFF23(L)_d5e8a16be50a9bc
_symmetry_space_group_name_H-M   P3_212
_cell_length_a   7.10087310
_cell_length_b   7.10087310
_cell_length_c   50.72314078
_cell_angle_alpha   90.00000000
_cell_angle_beta   90.00000000
_cell_angle_gamma   120.00000000
_symmetry_Int_Tables_number   153
_chemical_formula_moiety   'C4 H8 N8 O8'
_chemical_formula_sum   'H48 C24 N48 O48'
_cell_volume   2214.93135995
_cell_formula_units_Z   6
loop_
 _symmetry_equiv_pos_site_id
 _symmetry_equiv_pos_as_xyz
  1  'x, y, z'
  2  '-y, x-y, z+2/3'
  3  '-x+y, -x, z+1/3'
  4  '-y, -x, -z+1/3'
  5  '-x+y, y, -z+2/3'
  6  'x, x-y, -z'
loop_
 _atom_site_type_symbol
 _atom_site_label
 _atom_site_symmetry_multiplicity
 _atom_site_fract_x
 _atom_site_fract_y
 _atom_site_fract_z
 _atom_site_occupancy
  H  H0  6  -0.50215698  0.47579499  0.73725650  1
  H  H1  6  -0.19644000  0.74447330  0.68617073  1
  H  H2  6  -0.09506900  1.24499268  0.56696395  1
  H  H3  6  -0.07987896  1.29459069  0.60124553  1
  H  H4  6  -0.04806928  1.16333818  0.70417178  1
  H  H5  6  -0.00817990  0.65497898  0.69121504  1
  H  H6  6  0.22271426  -0.06305375  0.28487671  1
  H  H7  6  0.32912578  -0.12233547  0.37891340  1
  C  C8  6  -0.07326992  0.75086645  0.69951273  1
  C  C9  6  -0.01833933  1.23907553  0.58515183  1
  C  C10  6  0.06868931  -0.06748532  0.28500385  1
  C  C11  6  0.36086114  -0.03042008  0.39719083  1
  N  N12  6  -0.18263668  0.66135739  0.72409702  1
  N  N13  6  -0.09986050  0.56837686  0.74104220  1
  N  N14  6  -0.04101391  0.89966831  0.57320952  1
  N  N15  6  -0.02473735  0.68307713  0.63575220  1
  N  N16  6  -0.01876462  1.07637829  0.74131402  1
  N  N17  6  0.02314478  0.12532037  0.36757502  1
  N  N18  6  0.21345255  -0.16644963  0.41744615  1
  N  N19  6  0.29726247  -0.20278611  0.44043035  1
  O  O20  6  -0.21646247  0.54288484  0.63487560  1
  O  O21  6  -0.19686164  0.30655411  0.23856960  1
  O  O22  6  -0.06609102  0.72509219  0.58033933  1
  O  O23  6  0.01666182  0.03525443  0.44817655  1
  O  O24  6  0.06571068  0.49301136  0.26606864  1
  O  O25  6  0.12184882  0.65018168  0.64104019  1
  O  O26  6  0.16902318  -0.30896247  0.45740921  1
  O  O27  6  0.49240214  -0.12869466  0.44112984  1
