###############################################################################################
#
# CIF file generated by modified CIFWriter class 
# in pymatgen (v2025.03.10) https://pymatgen.org/
#
###############################################################################################
data_MACE-OFF23(L)_d70fcd772935e9c
_symmetry_space_group_name_H-M   P31c
_cell_length_a   12.28936328
_cell_length_b   12.28936328
_cell_length_c   14.59823776
_cell_angle_alpha   90.00000000
_cell_angle_beta   90.00000000
_cell_angle_gamma   120.00000000
_symmetry_Int_Tables_number   159
_chemical_formula_moiety   'C4 H8 N8 O8'
_chemical_formula_sum   'H48 C24 N48 O48'
_cell_volume   1909.36883413
_cell_formula_units_Z   6
loop_
 _symmetry_equiv_pos_site_id
 _symmetry_equiv_pos_as_xyz
  1  'x, y, z'
  2  '-y, x-y, z'
  3  '-x+y, -x, z'
  4  'y, x, z+1/2'
  5  'x-y, -y, z+1/2'
  6  '-x, -x+y, z+1/2'
loop_
 _atom_site_type_symbol
 _atom_site_label
 _atom_site_symmetry_multiplicity
 _atom_site_fract_x
 _atom_site_fract_y
 _atom_site_fract_z
 _atom_site_occupancy
  H  H0  6  -0.02524271  0.53988705  0.19188718  1
  H  H1  6  -0.02463235  0.53898457  0.47429742  1
  H  H2  6  0.10603932  0.30855161  0.19163258  1
  H  H3  6  0.10696289  0.30793285  0.47235844  1
  H  H4  6  0.11584616  0.57800899  0.24978088  1
  H  H5  6  0.11624279  0.57767531  0.41589413  1
  H  H6  6  0.18420964  0.45331640  0.25170791  1
  H  H7  6  0.18471141  0.45297415  0.41258030  1
  C  C8  6  0.01517992  0.51213976  0.24661684  1
  C  C9  6  0.01561949  0.51167702  0.41918111  1
  C  C10  6  0.09769003  0.36218895  0.24738140  1
  C  C11  6  0.09824543  0.36179624  0.41694303  1
  N  N12  6  -0.15983947  0.49883463  0.33333710  1
  N  N13  6  -0.08540651  0.31694717  0.15940297  1
  N  N14  6  -0.08457704  0.31573947  0.50555399  1
  N  N15  6  -0.03635287  0.52311118  0.33306735  1
  N  N16  6  -0.00188749  0.38911720  0.22835226  1
  N  N17  6  -0.00119246  0.38862084  0.43677814  1
  N  N18  6  0.07996391  0.29418658  0.33203317  1
  N  N19  6  0.08683475  0.88643490  0.33166049  1
  O  O20  6  -0.20832978  0.49094644  0.25971162  1
  O  O21  6  -0.20808142  0.49020802  0.40716173  1
  O  O22  6  -0.13641048  0.36337594  0.11618959  1
  O  O23  6  -0.13528578  0.36187439  0.54949505  1
  O  O24  6  -0.09958090  0.21350421  0.14837630  1
  O  O25  6  -0.09886169  0.21214265  0.51573632  1
  O  O26  6  0.03698514  0.87347667  0.40539716  1
  O  O27  6  0.03791403  0.87428190  0.25764707  1
