###############################################################################################
#
# CIF file generated by modified CIFWriter class 
# in pymatgen (v2025.03.10) https://pymatgen.org/
#
###############################################################################################
data_MACE-OFF23(L)_d96e5ada2beee31
_symmetry_space_group_name_H-M   P-3
_cell_length_a   12.92585530
_cell_length_b   12.92585530
_cell_length_c   13.89319831
_cell_angle_alpha   90.00000000
_cell_angle_beta   90.00000000
_cell_angle_gamma   120.00000000
_symmetry_Int_Tables_number   147
_chemical_formula_moiety   'C4 H8 N8 O8'
_chemical_formula_sum   'H48 C24 N48 O48'
_cell_volume   2010.25636775
_cell_formula_units_Z   6
loop_
 _symmetry_equiv_pos_site_id
 _symmetry_equiv_pos_as_xyz
  1  'x, y, z'
  2  '-x, -y, -z'
  3  '-y, x-y, z'
  4  'y, -x+y, -z'
  5  '-x+y, -x, z'
  6  'x-y, x, -z'
loop_
 _atom_site_type_symbol
 _atom_site_label
 _atom_site_symmetry_multiplicity
 _atom_site_fract_x
 _atom_site_fract_y
 _atom_site_fract_z
 _atom_site_occupancy
  H  H0  6  -0.04899770  0.18490691  0.38734148  1
  H  H1  6  -0.04649475  0.10839321  0.28333721  1
  H  H2  6  0.01482293  0.37658549  0.01520813  1
  H  H3  6  0.04367320  0.26193000  0.05056845  1
  H  H4  6  0.08815753  0.24297171  0.83434840  1
  H  H5  6  0.12928528  0.82802639  0.15950017  1
  H  H6  6  0.13074833  0.39527818  0.82236004  1
  H  H7  6  0.20261217  0.76928293  0.22708126  1
  C  C8  6  -0.03053130  0.19431685  0.31096718  1
  C  C9  6  0.00373749  0.31508412  0.07265972  1
  C  C10  6  0.14891320  0.35246347  0.20861206  1
  C  C11  6  0.16388444  0.33315607  0.82636993  1
  N  N12  6  -0.20073770  0.26334636  0.03570093  1
  N  N13  6  -0.15055238  0.28998801  0.30893879  1
  N  N14  6  -0.12342207  0.23765623  0.08785807  1
  N  N15  6  -0.11042297  0.22172367  0.26145427  1
  N  N16  6  0.05629152  0.47353979  0.18714977  1
  N  N17  6  0.07001611  0.37967841  0.15654898  1
  N  N18  6  0.09226889  0.82777389  0.35231487  1
  N  N19  6  0.09594818  0.28657224  0.29857490  1
  O  O20  6  -0.21950734  0.30869653  0.26431180  1
  O  O21  6  -0.15938157  0.32291959  -0.03643563  1
  O  O22  6  -0.10863173  0.32693063  0.38770464  1
  O  O23  6  -0.02033285  0.48460833  0.14590318  1
  O  O24  6  0.03445328  0.72422940  0.32580639  1
  O  O25  6  0.06907227  0.87002141  0.42166526  1
  O  O26  6  0.11839087  0.53305105  0.25297304  1
  O  O27  6  0.21595738  0.51867558  0.93769171  1
