###############################################################################################
#
# CIF file generated by modified CIFWriter class 
# in pymatgen (v2025.03.10) https://pymatgen.org/
#
###############################################################################################
data_MACE-OFF23(L)_dd2467a778eedb3
_symmetry_space_group_name_H-M   P3_121
_cell_length_a   11.82033621
_cell_length_b   11.82033621
_cell_length_c   13.28762215
_cell_angle_alpha   90.00000000
_cell_angle_beta   90.00000000
_cell_angle_gamma   120.00000000
_symmetry_Int_Tables_number   152
_chemical_formula_moiety   'C4 H8 N8 O8'
_chemical_formula_sum   'H48 C24 N48 O48'
_cell_volume   1607.82049620
_cell_formula_units_Z   6
loop_
 _symmetry_equiv_pos_site_id
 _symmetry_equiv_pos_as_xyz
  1  'x, y, z'
  2  '-y, x-y, z+1/3'
  3  '-x+y, -x, z+2/3'
  4  'y, x, -z'
  5  'x-y, -y, -z+2/3'
  6  '-x, -x+y, -z+1/3'
loop_
 _atom_site_type_symbol
 _atom_site_label
 _atom_site_symmetry_multiplicity
 _atom_site_fract_x
 _atom_site_fract_y
 _atom_site_fract_z
 _atom_site_occupancy
  H  H0  6  -0.16333948  0.33661292  0.52781259  1
  H  H1  6  -0.06954935  0.27745437  0.58568677  1
  H  H2  6  -0.06468560  0.11518209  0.38319340  1
  H  H3  6  -0.01290184  0.16141188  0.50782938  1
  H  H4  6  0.08358042  0.67864295  0.06452076  1
  H  H5  6  0.10720857  0.74937933  0.18585107  1
  H  H6  6  0.19428646  0.46861086  0.59908222  1
  H  H7  6  0.22365659  0.61971551  0.55264578  1
  C  C8  6  -0.06957970  0.34149903  0.52699492  1
  C  C9  6  -0.00438041  0.19740052  0.43135943  1
  C  C10  6  0.14072265  0.76628481  0.10831706  1
  C  C11  6  0.16748512  0.51526352  0.54081620  1
  N  N12  6  -0.08625024  0.32102461  0.34537325  1
  N  N13  6  -0.04952966  0.29018270  0.43450379  1
  N  N14  6  -0.00389239  0.57167564  0.55374968  1
  N  N15  6  0.03056307  0.47511927  0.54853565  1
  N  N16  6  0.04482076  0.84173607  -0.01772832  1
  N  N17  6  0.12364086  0.86973977  0.06525841  1
  N  N18  6  0.19269391  0.53166110  0.35979759  1
  N  N19  6  0.20302781  0.47800828  0.44743844  1
  O  O20  6  -0.13227430  0.39292348  0.35173181  1
  O  O21  6  -0.11833263  0.53755249  0.54827448  1
  O  O22  6  -0.06377306  0.28050246  0.26943046  1
  O  O23  6  -0.03174143  0.72612461  -0.03449318  1
  O  O24  6  0.04976068  0.93132512  -0.06527310  1
  O  O25  6  0.08388143  0.68244051  0.56839790  1
  O  O26  6  0.16032187  0.61484786  0.36731387  1
  O  O27  6  0.21130475  0.49044521  0.28232785  1
