###############################################################################################
#
# CIF file generated by modified CIFWriter class 
# in pymatgen (v2025.03.10) https://pymatgen.org/
#
###############################################################################################
data_MACE-OFF23(L)_e2de3046001176c
_symmetry_space_group_name_H-M   P6_5
_cell_length_a   8.10563020
_cell_length_b   8.10563020
_cell_length_c   32.05673826
_cell_angle_alpha   90.00000000
_cell_angle_beta   90.00000000
_cell_angle_gamma   120.00000000
_symmetry_Int_Tables_number   170
_chemical_formula_moiety   'C4 H8 N8 O8'
_chemical_formula_sum   'H48 C24 N48 O48'
_cell_volume   1823.99454432
_cell_formula_units_Z   6
loop_
 _symmetry_equiv_pos_site_id
 _symmetry_equiv_pos_as_xyz
  1  'x, y, z'
  2  'x-y, x, z+5/6'
  3  '-y, x-y, z+2/3'
  4  '-x, -y, z+1/2'
  5  '-x+y, -x, z+1/3'
  6  'y, -x+y, z+1/6'
loop_
 _atom_site_type_symbol
 _atom_site_label
 _atom_site_symmetry_multiplicity
 _atom_site_fract_x
 _atom_site_fract_y
 _atom_site_fract_z
 _atom_site_occupancy
  H  H0  6  -0.12301636  0.66609878  0.96900350  1
  H  H1  6  -0.06802488  0.32977540  0.89928783  1
  H  H2  6  -0.03873365  0.26144328  0.64445357  1
  H  H3  6  -0.00376845  0.42672712  0.95007137  1
  H  H4  6  0.05291642  -0.19796566  0.75954502  1
  H  H5  6  0.15968661  0.79433448  0.99027703  1
  H  H6  6  0.22120950  0.53037089  0.25455020  1
  H  H7  6  0.28214505  0.70160696  0.29453851  1
  C  C8  6  -0.09902329  0.70476667  0.93628534  1
  C  C9  6  -0.00861412  0.45967940  0.91733827  1
  C  C10  6  0.10441016  0.33990602  0.63211000  1
  C  C11  6  0.32166570  0.66377328  0.60158072  1
  N  N12  6  -0.13180880  0.53903813  0.91246962  1
  N  N13  6  -0.01230774  0.55684402  0.61561550  1
  N  N14  6  0.01991154  0.16717147  0.56676633  1
  N  N15  6  0.09361958  0.86111877  0.93394567  1
  N  N16  6  0.13530954  0.51981886  0.61624575  1
  N  N17  6  0.18715035  0.59299880  0.90542994  1
  N  N18  6  0.21851476  0.66812613  0.86595477  1
  N  N19  6  0.26287784  -0.27944890  0.71779219  1
  O  O20  6  -0.16453059  0.43558618  0.62948476  1
  O  O21  6  -0.12311105  0.17878862  0.56851525  1
  O  O22  6  0.02054717  0.71080263  0.60228250  1
  O  O23  6  0.03677927  0.92924171  0.87100861  1
  O  O24  6  0.09225851  0.58337110  0.84072500  1
  O  O25  6  0.09250997  -0.37065161  0.71187641  1
  O  O26  6  0.18602737  0.55390338  0.52655590  1
  O  O27  6  0.30902996  0.61992534  0.03476007  1
