###############################################################################################
#
# CIF file generated by modified CIFWriter class 
# in pymatgen (v2025.03.10) https://pymatgen.org/
#
###############################################################################################
data_MACE-OFF23(L)_e350803e5732f42
_symmetry_space_group_name_H-M   P3_221
_cell_length_a   7.60949508
_cell_length_b   7.60949508
_cell_length_c   45.33831561
_cell_angle_alpha   90.00000000
_cell_angle_beta   90.00000000
_cell_angle_gamma   120.00000000
_symmetry_Int_Tables_number   154
_chemical_formula_moiety   'C4 H8 N8 O8'
_chemical_formula_sum   'H48 C24 N48 O48'
_cell_volume   2273.56666969
_cell_formula_units_Z   6
loop_
 _symmetry_equiv_pos_site_id
 _symmetry_equiv_pos_as_xyz
  1  'x, y, z'
  2  '-y, x-y, z+2/3'
  3  '-x+y, -x, z+1/3'
  4  'y, x, -z'
  5  'x-y, -y, -z+1/3'
  6  '-x, -x+y, -z+2/3'
loop_
 _atom_site_type_symbol
 _atom_site_label
 _atom_site_symmetry_multiplicity
 _atom_site_fract_x
 _atom_site_fract_y
 _atom_site_fract_z
 _atom_site_occupancy
  H  H0  6  -0.18311693  0.19963695  0.66341794  1
  H  H1  6  -0.13310529  0.63907224  0.63719642  1
  H  H2  6  -0.05556646  0.46682255  0.66411309  1
  H  H3  6  0.12599275  0.48634737  0.71676949  1
  H  H4  6  0.14221941  0.62180230  0.95649014  1
  H  H5  6  0.17434211  0.36008393  0.27612896  1
  H  H6  6  0.17532296  0.78712138  0.57080168  1
  H  H7  6  0.27662274  0.66305514  0.63887135  1
  C  C8  6  -0.20950704  0.53603514  0.61894658  1
  C  C9  6  -0.09810584  0.33501501  0.65023945  1
  C  C10  6  0.11862713  0.71350776  0.59188278  1
  C  C11  6  0.24234620  0.53054711  0.62566255  1
  N  N12  6  -0.22094365  0.34584674  0.62678082  1
  N  N13  6  -0.10068317  0.62357912  0.59199401  1
  N  N14  6  0.07073461  0.89546237  0.97234326  1
  N  N15  6  0.09293154  0.35166466  0.64164778  1
  N  N16  6  0.12849432  0.31939827  0.76301479  1
  N  N17  6  0.16990898  -0.38705417  0.38356797  1
  N  N18  6  0.17669933  0.44665678  0.57386825  1
  N  N19  6  0.17817206  0.56387651  0.59733443  1
  O  O20  6  -0.09148739  0.76087410  0.54857798  1
  O  O21  6  -0.07690305  0.72731093  0.97472215  1
  O  O22  6  -0.00697031  0.35648675  0.75840253  1
  O  O23  6  0.01262639  -0.42879047  0.37105793  1
  O  O24  6  0.01561433  -0.05124318  0.36396379  1
  O  O25  6  0.09981537  0.78703544  0.91332764  1
  O  O26  6  0.13657380  0.48598385  0.54991128  1
  O  O27  6  0.18877998  -0.47487269  0.40435940  1
