###############################################################################################
#
# CIF file generated by modified CIFWriter class 
# in pymatgen (v2025.03.10) https://pymatgen.org/
#
###############################################################################################
data_MACE-OFF23(L)_e64d1bc702753a1
_symmetry_space_group_name_H-M   P3_121
_cell_length_a   13.56067237
_cell_length_b   13.56067237
_cell_length_c   11.66838643
_cell_angle_alpha   90.00000000
_cell_angle_beta   90.00000000
_cell_angle_gamma   120.00000000
_symmetry_Int_Tables_number   152
_chemical_formula_moiety   'C4 H8 N8 O8'
_chemical_formula_sum   'H48 C24 N48 O48'
_cell_volume   1858.24889005
_cell_formula_units_Z   6
loop_
 _symmetry_equiv_pos_site_id
 _symmetry_equiv_pos_as_xyz
  1  'x, y, z'
  2  '-y, x-y, z+1/3'
  3  '-x+y, -x, z+2/3'
  4  'y, x, -z'
  5  'x-y, -y, -z+2/3'
  6  '-x, -x+y, -z+1/3'
loop_
 _atom_site_type_symbol
 _atom_site_label
 _atom_site_symmetry_multiplicity
 _atom_site_fract_x
 _atom_site_fract_y
 _atom_site_fract_z
 _atom_site_occupancy
  H  H0  6  -0.07907795  0.25685877  0.55212860  1
  H  H1  6  0.01766109  0.58729973  0.54373148  1
  H  H2  6  0.06611806  0.36276699  0.57092614  1
  H  H3  6  0.11297952  0.53756910  0.57857741  1
  H  H4  6  0.14612485  0.30218782  0.29587117  1
  H  H5  6  0.17669280  0.79889884  0.09273738  1
  H  H6  6  0.24641540  0.54950304  0.44765619  1
  H  H7  6  0.27218073  0.63199328  0.32302734  1
  C  C8  6  -0.00598427  0.32781197  0.51247467  1
  C  C9  6  0.05683180  0.53964278  0.51304386  1
  C  C10  6  0.13593342  0.35370898  0.36051814  1
  C  C11  6  0.20675817  0.56426714  0.37382696  1
  N  N12  6  -0.13380500  0.39738429  0.45453372  1
  N  N13  6  -0.04979691  0.17802076  0.37024531  1
  N  N14  6  -0.02838331  0.42141304  0.49338803  1
  N  N15  6  0.02522744  0.28716532  0.41293687  1
  N  N16  6  0.12626774  0.59697982  0.41404230  1
  N  N17  6  0.13032696  0.69322931  0.37193814  1
  N  N18  6  0.13737250  0.46505984  0.19550442  1
  N  N19  6  0.15151824  0.45856217  0.31119764  1
  O  O20  6  -0.20475649  0.29827650  0.44001704  1
  O  O21  6  -0.14821906  0.47770743  0.43812200  1
  O  O22  6  -0.01492074  0.14450248  0.29328981  1
  O  O23  6  0.05567000  0.71209921  0.39839364  1
  O  O24  6  0.11282829  0.38232610  0.13772654  1
  O  O25  6  0.12725485  -0.14199893  0.58391456  1
  O  O26  6  0.14837261  0.55479142  0.16045410  1
  O  O27  6  0.21090778  0.75405515  0.30925794  1
