###############################################################################################
#
# CIF file generated by modified CIFWriter class 
# in pymatgen (v2025.03.10) https://pymatgen.org/
#
###############################################################################################
data_MACE-OFF23(L)_ea90a8fd66b829e
_symmetry_space_group_name_H-M   P-3
_cell_length_a   16.70346661
_cell_length_b   16.70346661
_cell_length_c   8.00937564
_cell_angle_alpha   90.00000000
_cell_angle_beta   90.00000000
_cell_angle_gamma   120.00000000
_symmetry_Int_Tables_number   147
_chemical_formula_moiety   'C4 H8 N8 O8'
_chemical_formula_sum   'H48 C24 N48 O48'
_cell_volume   1935.27426127
_cell_formula_units_Z   6
loop_
 _symmetry_equiv_pos_site_id
 _symmetry_equiv_pos_as_xyz
  1  'x, y, z'
  2  '-x, -y, -z'
  3  '-y, x-y, z'
  4  'y, -x+y, -z'
  5  '-x+y, -x, z'
  6  'x-y, x, -z'
loop_
 _atom_site_type_symbol
 _atom_site_label
 _atom_site_symmetry_multiplicity
 _atom_site_fract_x
 _atom_site_fract_y
 _atom_site_fract_z
 _atom_site_occupancy
  H  H0  6  0.05702121  0.73429316  0.51666008  1
  H  H1  6  0.06129522  0.66759557  0.68461168  1
  H  H2  6  0.08004912  0.71803121  0.93549461  1
  H  H3  6  0.08136004  0.82303772  0.97612957  1
  H  H4  6  0.18904808  0.50736049  1.03701526  1
  H  H5  6  0.20030649  0.66052638  0.72496237  1
  H  H6  6  0.21592108  0.71068346  0.97403961  1
  H  H7  6  0.28461081  0.57499852  0.57607898  1
  C  C8  6  0.09912951  0.73292736  0.61795765  1
  C  C9  6  0.11699752  0.79246359  0.91358099  1
  C  C10  6  0.21560706  0.47625021  0.95142578  1
  C  C11  6  0.24246631  0.72366838  0.65489474  1
  N  N12  6  0.11143301  0.34390651  1.12046696  1
  N  N13  6  0.11318007  0.23928271  0.67643525  1
  N  N14  6  0.11805193  0.80481946  0.73591819  1
  N  N15  6  0.12569376  0.49460969  0.73265523  1
  N  N16  6  0.16787026  0.37771425  0.98118243  1
  N  N17  6  0.18391298  0.72265523  0.37877478  1
  N  N18  6  0.18406914  0.74229067  0.54746562  1
  N  N19  6  0.20698269  0.49863019  0.78052426  1
  O  O20  6  0.05662930  0.19248401  0.78034021  1
  O  O21  6  0.06962469  0.47989045  0.84142254  1
  O  O22  6  0.08195949  0.26389121  1.15616716  1
  O  O23  6  0.09433668  0.39749011  1.19408025  1
  O  O24  6  0.10591494  0.23050577  0.52652524  1
  O  O25  6  0.11873705  0.50801240  0.58586507  1
  O  O26  6  0.12218267  0.71944902  0.29339040  1
  O  O27  6  0.24601818  0.71160449  0.32766740  1
