###############################################################################################
#
# CIF file generated by modified CIFWriter class 
# in pymatgen (v2025.03.10) https://pymatgen.org/
#
###############################################################################################
data_MACE-OFF23(L)_ef9b6bfd037fe2e
_symmetry_space_group_name_H-M   P-3
_cell_length_a   12.59086811
_cell_length_b   12.59086811
_cell_length_c   13.67990108
_cell_angle_alpha   90.00000000
_cell_angle_beta   90.00000000
_cell_angle_gamma   120.00000000
_symmetry_Int_Tables_number   147
_chemical_formula_moiety   'C4 H8 N8 O8'
_chemical_formula_sum   'H48 C24 N48 O48'
_cell_volume   1878.12692130
_cell_formula_units_Z   6
loop_
 _symmetry_equiv_pos_site_id
 _symmetry_equiv_pos_as_xyz
  1  'x, y, z'
  2  '-x, -y, -z'
  3  '-y, x-y, z'
  4  'y, -x+y, -z'
  5  '-x+y, -x, z'
  6  'x-y, x, -z'
loop_
 _atom_site_type_symbol
 _atom_site_label
 _atom_site_symmetry_multiplicity
 _atom_site_fract_x
 _atom_site_fract_y
 _atom_site_fract_z
 _atom_site_occupancy
  H  H0  6  -0.23909295  0.24775836  0.20704049  1
  H  H1  6  -0.10161876  0.38690261  0.22855061  1
  H  H2  6  -0.04193164  0.26467945  0.45512027  1
  H  H3  6  -0.01702845  0.40533117  0.40581051  1
  H  H4  6  0.01497911  0.42345520  0.09829343  1
  H  H5  6  0.04057656  0.30908142  0.04687285  1
  H  H6  6  0.09931481  0.48762188  0.27486350  1
  H  H7  6  0.23711798  0.48645476  0.29598491  1
  C  C8  6  -0.14471659  0.28753912  0.23042949  1
  C  C9  6  -0.03177944  0.31456655  0.38832450  1
  C  C10  6  0.03008790  0.34732462  0.11436593  1
  C  C11  6  0.14283983  0.43174245  0.27238679  1
  N  N12  6  -0.14391804  0.24715250  0.33001439  1
  N  N13  6  -0.13266446  0.13560094  0.13138640  1
  N  N14  6  -0.07513295  0.25511530  0.16614649  1
  N  N15  6  0.07343104  0.32879256  0.33587236  1
  N  N16  6  0.13103969  0.26632274  0.36919819  1
  N  N17  6  0.14223444  0.39144105  0.17252666  1
  N  N18  6  0.19280712  0.44475740  0.61950502  1
  N  N19  6  0.19531701  0.74962204  0.12199670  1
  O  O20  6  -0.07437931  0.10652736  0.07946438  1
  O  O21  6  0.06940906  0.30693468  0.84065410  1
  O  O22  6  0.06989887  0.76371011  0.34176085  1
  O  O23  6  0.07256832  0.17750067  0.41969083  1
  O  O24  6  0.15488108  0.50208914  0.66537808  1
  O  O25  6  0.15752902  0.65448942  0.16800678  1
  O  O26  6  0.18410248  0.43119337  0.53117967  1
  O  O27  6  0.18683937  0.75441975  0.03366368  1
