###############################################################################################
#
# CIF file generated by modified CIFWriter class 
# in pymatgen (v2025.03.10) https://pymatgen.org/
#
###############################################################################################
data_MACE-OFF23(L)_f06ea8fb67bfffa
_symmetry_space_group_name_H-M   P3_212
_cell_length_a   14.59785417
_cell_length_b   14.59785417
_cell_length_c   15.35103429
_cell_angle_alpha   90.00000000
_cell_angle_beta   90.00000000
_cell_angle_gamma   120.00000000
_symmetry_Int_Tables_number   153
_chemical_formula_moiety   'C4 H8 N8 O8'
_chemical_formula_sum   'H48 C24 N48 O48'
_cell_volume   2832.99830860
_cell_formula_units_Z   6
loop_
 _symmetry_equiv_pos_site_id
 _symmetry_equiv_pos_as_xyz
  1  'x, y, z'
  2  '-y, x-y, z+2/3'
  3  '-x+y, -x, z+1/3'
  4  '-y, -x, -z+1/3'
  5  '-x+y, y, -z+2/3'
  6  'x, x-y, -z'
loop_
 _atom_site_type_symbol
 _atom_site_label
 _atom_site_symmetry_multiplicity
 _atom_site_fract_x
 _atom_site_fract_y
 _atom_site_fract_z
 _atom_site_occupancy
  H  H0  6  -0.03247362  0.49833901  0.88080626  1
  H  H1  6  0.01200388  0.73514617  0.71175391  1
  H  H2  6  0.06473552  0.53051680  0.20119808  1
  H  H3  6  0.09361290  0.69339895  0.54799239  1
  H  H4  6  0.09893253  0.41640106  0.29535235  1
  H  H5  6  0.21974712  0.74184064  0.59677482  1
  H  H6  6  0.22717030  0.63038630  0.82725048  1
  H  H7  6  0.26758223  0.65568368  0.93672167  1
  C  C8  6  0.03121154  0.56427622  0.84678601  1
  C  C9  6  0.06028083  0.71158021  0.74831786  1
  C  C10  6  0.17749950  0.74843773  0.54109424  1
  C  C11  6  0.22652485  0.67176605  0.88596570  1
  N  N12  6  -0.11628231  0.31279787  0.21792484  1
  N  N13  6  -0.00948595  0.36386564  0.19367094  1
  N  N14  6  0.08925014  0.64759233  0.98759885  1
  N  N15  6  0.11602727  0.48739925  0.09354766  1
  N  N16  6  0.11918014  0.87579126  0.51258444  1
  N  N17  6  0.14410237  0.80119900  0.79309880  1
  N  N18  6  0.14601995  0.50540744  0.59017127  1
  N  N19  6  0.21594567  0.71808956  0.46539331  1
  O  O20  6  -0.16619128  0.47945692  0.80437877  1
  O  O21  6  -0.14930432  0.23098049  0.25833702  1
  O  O22  6  -0.00355223  0.38935951  -0.00463455  1
  O  O23  6  0.03482016  0.86305111  0.81209396  1
  O  O24  6  0.04135245  0.80126092  0.48164236  1
  O  O25  6  0.05308838  0.60190235  0.42445907  1
  O  O26  6  0.16258994  0.70416340  1.03553529  1
  O  O27  6  0.18432162  0.61428870  0.35030251  1
