###############################################################################################
#
# CIF file generated by modified CIFWriter class 
# in pymatgen (v2025.03.10) https://pymatgen.org/
#
###############################################################################################
data_MACE-OFF23(L)_f79b17aefba91fc
_symmetry_space_group_name_H-M   P-3
_cell_length_a   13.78031488
_cell_length_b   13.78031488
_cell_length_c   11.16318227
_cell_angle_alpha   90.00000000
_cell_angle_beta   90.00000000
_cell_angle_gamma   120.00000000
_symmetry_Int_Tables_number   147
_chemical_formula_moiety   'C4 H8 N8 O8'
_chemical_formula_sum   'H48 C24 N48 O48'
_cell_volume   1835.84888449
_cell_formula_units_Z   6
loop_
 _symmetry_equiv_pos_site_id
 _symmetry_equiv_pos_as_xyz
  1  'x, y, z'
  2  '-x, -y, -z'
  3  '-y, x-y, z'
  4  'y, -x+y, -z'
  5  '-x+y, -x, z'
  6  'x-y, x, -z'
loop_
 _atom_site_type_symbol
 _atom_site_label
 _atom_site_symmetry_multiplicity
 _atom_site_fract_x
 _atom_site_fract_y
 _atom_site_fract_z
 _atom_site_occupancy
  H  H0  6  0.00493318  0.19830358  0.06499279  1
  H  H1  6  0.00694448  0.19981915  0.43391795  1
  H  H2  6  0.10891775  0.51829852  0.06282053  1
  H  H3  6  0.11166844  0.51979625  0.43368245  1
  H  H4  6  0.13194242  0.29275948  0.13560039  1
  H  H5  6  0.13318161  0.29356145  0.36140320  1
  H  H6  6  0.18890126  0.46531063  0.12895957  1
  H  H7  6  0.19038315  0.46594117  0.36582583  1
  C  C8  6  0.04168540  0.25788143  0.13728270  1
  C  C9  6  0.04288174  0.25874264  0.36092384  1
  C  C10  6  0.11141200  0.46772529  0.13532673  1
  C  C11  6  0.11294445  0.46858646  0.36113145  1
  N  N12  6  -0.08331762  0.32989107  0.10472368  1
  N  N13  6  -0.08121973  0.33153202  0.39778837  1
  N  N14  6  -0.07538700  0.08677978  0.24977348  1
  N  N15  6  -0.00428719  0.20101282  0.24945716  1
  N  N16  6  0.02366750  0.35226738  0.12223145  1
  N  N17  6  0.02514718  0.35327089  0.37577790  1
  N  N18  6  0.08558320  0.60463796  0.24815828  1
  N  N19  6  0.11057431  0.51967824  0.24821773  1
  O  O20  6  -0.15407545  0.23333039  0.08634761  1
  O  O21  6  -0.15170640  0.23520616  0.41778566  1
  O  O22  6  -0.09907656  0.40899351  0.11117818  1
  O  O23  6  -0.09668616  0.41095514  0.39328933  1
  O  O24  6  0.04011146  0.14438437  0.84659529  1
  O  O25  6  0.04071006  0.14494721  0.65361637  1
  O  O26  6  0.07842409  0.64194551  0.34423223  1
  O  O27  6  0.07852471  0.64185957  0.15192200  1
