###############################################################################################
#
# CIF file generated by modified CIFWriter class 
# in pymatgen (v2025.03.10) https://pymatgen.org/
#
###############################################################################################
data_MACE-OFF23(L)_f955a7dfcb3bb37
_symmetry_space_group_name_H-M   P3_121
_cell_length_a   7.62749417
_cell_length_b   7.62749417
_cell_length_c   37.46424890
_cell_angle_alpha   90.00000000
_cell_angle_beta   90.00000000
_cell_angle_gamma   120.00000000
_symmetry_Int_Tables_number   152
_chemical_formula_moiety   'C4 H8 N8 O8'
_chemical_formula_sum   'H48 C24 N48 O48'
_cell_volume   1887.60635553
_cell_formula_units_Z   6
loop_
 _symmetry_equiv_pos_site_id
 _symmetry_equiv_pos_as_xyz
  1  'x, y, z'
  2  '-y, x-y, z+1/3'
  3  '-x+y, -x, z+2/3'
  4  'y, x, -z'
  5  'x-y, -y, -z+2/3'
  6  '-x, -x+y, -z+1/3'
loop_
 _atom_site_type_symbol
 _atom_site_label
 _atom_site_symmetry_multiplicity
 _atom_site_fract_x
 _atom_site_fract_y
 _atom_site_fract_z
 _atom_site_occupancy
  H  H0  6  -0.17041894  0.55809710  0.45868408  1
  H  H1  6  -0.01925358  0.60925162  0.35172946  1
  H  H2  6  -0.00471946  0.80136500  0.44192538  1
  H  H3  6  0.00754025  0.39652506  0.72566591  1
  H  H4  6  0.04654273  0.35256874  0.79122720  1
  H  H5  6  0.07819419  0.83222767  0.37737461  1
  H  H6  6  0.09324835  0.64587359  0.71056363  1
  H  H7  6  0.17189805  0.57520852  0.81724478  1
  C  C8  6  -0.03952763  0.64466372  0.44189121  1
  C  C9  6  0.04879967  0.67711058  0.37696421  1
  C  C10  6  0.13033235  0.55257347  0.72707777  1
  C  C11  6  0.17314484  0.50696874  0.79211201  1
  N  N12  6  -0.27249542  0.39695929  0.39882316  1
  N  N13  6  -0.08940342  0.56660971  0.40581342  1
  N  N14  6  0.11997761  0.46708989  0.46768463  1
  N  N15  6  0.12749373  0.78540729  0.77158383  1
  N  N16  6  0.13795659  0.64618679  0.45599717  1
  N  N17  6  0.15276856  0.62344369  0.76354597  1
  N  N18  6  0.24371663  0.69100041  0.38078195  1
  N  N19  6  0.26159476  0.52697846  0.37140506  1
  O  O20  6  -0.30735603  0.33646338  0.36824563  1
  O  O21  6  -0.04402315  0.31619013  0.46355270  1
  O  O22  6  0.08755490  0.86385656  0.74695233  1
  O  O23  6  0.11057083  0.37926230  0.36037942  1
  O  O24  6  0.11627867  0.57319120  0.04206897  1
  O  O25  6  0.14583566  0.83887855  0.80250125  1
  O  O26  6  0.20629539  0.73125532  0.14747580  1
  O  O27  6  0.29130259  0.68007584  0.24296382  1
