###############################################################################################
#
# CIF file generated by modified CIFWriter class 
# in pymatgen (v2025.03.10) https://pymatgen.org/
#
###############################################################################################
data_MACE-OFF23(L)_109f70e8c7df5f2
_symmetry_space_group_name_H-M   P4/n
_cell_length_a   12.02142043
_cell_length_b   12.02142043
_cell_length_c   6.56909191
_cell_angle_alpha   90.00000000
_cell_angle_beta   90.00000000
_cell_angle_gamma   90.00000000
_symmetry_Int_Tables_number   85
_chemical_formula_moiety   'C6 H6 O'
_chemical_formula_sum   'H48 C48 O8'
_cell_volume   949.32935541
_cell_formula_units_Z   8
loop_
 _symmetry_equiv_pos_site_id
 _symmetry_equiv_pos_as_xyz
  1  'x, y, z'
  2  '-y+1/2, x+1/2, z'
  3  '-x, -y, z'
  4  'y+1/2, -x+1/2, z'
  5  '-x+1/2, -y+1/2, -z'
  6  'y, -x, -z'
  7  'x+1/2, y+1/2, -z'
  8  '-y, x, -z'
loop_
 _atom_site_type_symbol
 _atom_site_label
 _atom_site_symmetry_multiplicity
 _atom_site_fract_x
 _atom_site_fract_y
 _atom_site_fract_z
 _atom_site_occupancy
  H  H0  8  0.00615150  0.17412012  1.12016134  1
  H  H1  8  0.04677063  0.37520640  1.12739081  1
  H  H2  8  0.06893859  0.65925356  0.56887769  1
  H  H3  8  0.08897100  0.09700459  0.55064830  1
  H  H4  8  0.14537224  0.84955915  -0.13407955  1
  H  H5  8  0.15480836  0.69062356  1.14701012  1
  C  C6  8  0.08748719  0.19657610  1.06143948  1
  C  C7  8  0.09611345  0.20508271  0.83060147  1
  C  C8  8  0.09849222  0.17324058  0.63375981  1
  C  C9  8  0.11412065  0.32491243  1.06770725  1
  C  C10  8  0.12152134  0.32040135  0.83648774  1
  C  C11  8  0.13847781  0.35440437  0.64346061  1
  O  O12  8  0.12321156  0.26469392  0.51675323  1
