###############################################################################################
#
# CIF file generated by modified CIFWriter class 
# in pymatgen (v2025.03.10) https://pymatgen.org/
#
###############################################################################################
data_MACE-OFF23(L)_1935b788ef02376
_symmetry_space_group_name_H-M   C222_1
_cell_length_a   8.90598480
_cell_length_b   8.26898795
_cell_length_c   14.08748650
_cell_angle_alpha   90.00000000
_cell_angle_beta   90.00000000
_cell_angle_gamma   90.00000000
_symmetry_Int_Tables_number   20
_chemical_formula_moiety   'C6 H6 O'
_chemical_formula_sum   'H48 C48 O8'
_cell_volume   1037.45154399
_cell_formula_units_Z   8
loop_
 _symmetry_equiv_pos_site_id
 _symmetry_equiv_pos_as_xyz
  1  'x, y, z'
  2  '-x, -y, z+1/2'
  3  '-x, y, -z+1/2'
  4  'x, -y, -z'
  5  'x+1/2, y+1/2, z'
  6  '-x+1/2, -y+1/2, z+1/2'
  7  '-x+1/2, y+1/2, -z+1/2'
  8  'x+1/2, -y+1/2, -z'
loop_
 _atom_site_type_symbol
 _atom_site_label
 _atom_site_symmetry_multiplicity
 _atom_site_fract_x
 _atom_site_fract_y
 _atom_site_fract_z
 _atom_site_occupancy
  H  H0  8  -0.18372184  0.34678959  0.50079774  1
  H  H1  8  0.04881989  0.39277361  0.68556034  1
  H  H2  8  0.08678298  -0.00013789  0.38145980  1
  H  H3  8  0.16426345  0.39974528  0.58373202  1
  H  H4  8  0.17508355  0.10461732  0.83877291  1
  H  H5  8  0.20393664  0.39222806  0.23828323  1
  C  C6  8  -0.09093499  0.31318000  0.45620134  1
  C  C7  8  0.01489762  0.38950757  0.40445894  1
  C  C8  8  0.05655386  0.12431039  0.39194212  1
  C  C9  8  0.10673045  0.47236336  0.63642525  1
  C  C10  8  0.10838508  0.26973997  0.36350255  1
  C  C11  8  0.20882728  0.39376539  0.31539714  1
  O  O12  8  -0.06633488  0.14988353  0.44906517  1
