###############################################################################################
#
# CIF file generated by modified CIFWriter class 
# in pymatgen (v2025.03.10) https://pymatgen.org/
#
###############################################################################################
data_MACE-OFF23(L)_1d2a69a643c2c1
_symmetry_space_group_name_H-M   P-42c
_cell_length_a   7.02123589
_cell_length_b   7.02123589
_cell_length_c   20.02775611
_cell_angle_alpha   90.00000000
_cell_angle_beta   90.00000000
_cell_angle_gamma   90.00000000
_symmetry_Int_Tables_number   112
_chemical_formula_moiety   'C6 H6 O'
_chemical_formula_sum   'H48 C48 O8'
_cell_volume   987.32338155
_cell_formula_units_Z   8
loop_
 _symmetry_equiv_pos_site_id
 _symmetry_equiv_pos_as_xyz
  1  'x, y, z'
  2  'y, -x, -z'
  3  '-x, -y, z'
  4  '-y, x, -z'
  5  'x, -y, -z+1/2'
  6  'y, x, z+1/2'
  7  '-x, y, -z+1/2'
  8  '-y, -x, z+1/2'
loop_
 _atom_site_type_symbol
 _atom_site_label
 _atom_site_symmetry_multiplicity
 _atom_site_fract_x
 _atom_site_fract_y
 _atom_site_fract_z
 _atom_site_occupancy
  H  H0  8  -0.15796094  0.36967752  0.17395840  1
  H  H1  8  -0.10984356  0.37748386  0.05286161  1
  H  H2  8  -0.10307859  0.12561706  0.05045946  1
  H  H3  8  0.11666850  -0.15128581  0.67258910  1
  H  H4  8  0.25659149  0.35583803  0.74114203  1
  H  H5  8  0.27488968  0.44433014  0.53836770  1
  C  C6  8  -0.08393702  0.24590515  0.15457543  1
  C  C7  8  -0.05228733  0.25123474  0.07664681  1
  C  C8  8  0.13185048  0.25247312  0.16134773  1
  C  C9  8  0.16134552  0.25770488  0.09125126  1
  C  C10  8  0.25762979  0.30421357  0.69083308  1
  C  C11  8  0.26724350  0.35115380  0.58077530  1
  O  O12  8  0.26668516  0.44094287  0.64172256  1
