###############################################################################################
#
# CIF file generated by modified CIFWriter class 
# in pymatgen (v2025.03.10) https://pymatgen.org/
#
###############################################################################################
data_MACE-OFF23(L)_1e526f6fd97eba5
_symmetry_space_group_name_H-M   Pnna
_cell_length_a   11.34775642
_cell_length_b   9.69471975
_cell_length_c   8.84687776
_cell_angle_alpha   90.00000000
_cell_angle_beta   90.00000000
_cell_angle_gamma   90.00000000
_symmetry_Int_Tables_number   52
_chemical_formula_moiety   'C6 H6 O'
_chemical_formula_sum   'H48 C48 O8'
_cell_volume   973.27437928
_cell_formula_units_Z   8
loop_
 _symmetry_equiv_pos_site_id
 _symmetry_equiv_pos_as_xyz
  1  'x, y, z'
  2  '-x, -y, -z'
  3  '-x+1/2, -y, z'
  4  'x+1/2, y, -z'
  5  'x, -y+1/2, -z+1/2'
  6  '-x, y+1/2, z+1/2'
  7  '-x+1/2, y+1/2, -z+1/2'
  8  'x+1/2, -y+1/2, z+1/2'
loop_
 _atom_site_type_symbol
 _atom_site_label
 _atom_site_symmetry_multiplicity
 _atom_site_fract_x
 _atom_site_fract_y
 _atom_site_fract_z
 _atom_site_occupancy
  H  H0  8  -0.07552517  0.50877787  0.11734198  1
  H  H1  8  -0.06381709  0.63064317  0.26428289  1
  H  H2  8  -0.03753484  0.63830738  0.60353032  1
  H  H3  8  0.13193290  0.43932287  0.15962518  1
  H  H4  8  0.14409145  0.56378673  0.30614460  1
  H  H5  8  0.19368858  0.24280815  0.53709887  1
  C  C6  8  -0.02038095  0.58898724  0.16527766  1
  C  C7  8  0.02727277  0.69547554  0.05383775  1
  C  C8  8  0.02746261  0.70190415  0.54937073  1
  C  C9  8  0.11192494  0.54481028  0.19235853  1
  C  C10  8  0.14608313  0.65513815  0.07762419  1
  C  C11  8  0.21404011  0.73417476  -0.01263827  1
  O  O12  8  0.14200220  0.67646370  0.59057939  1
