###############################################################################################
#
# CIF file generated by modified CIFWriter class 
# in pymatgen (v2025.03.10) https://pymatgen.org/
#
###############################################################################################
data_MACE-OFF23(L)_1eede9a9bfacdac
_symmetry_space_group_name_H-M   P4_2/n
_cell_length_a   14.97954846
_cell_length_b   14.97954846
_cell_length_c   4.52854249
_cell_angle_alpha   90.00000000
_cell_angle_beta   90.00000000
_cell_angle_gamma   90.00000000
_symmetry_Int_Tables_number   86
_chemical_formula_moiety   'C6 H6 O'
_chemical_formula_sum   'H48 C48 O8'
_cell_volume   1016.14548511
_cell_formula_units_Z   8
loop_
 _symmetry_equiv_pos_site_id
 _symmetry_equiv_pos_as_xyz
  1  'x, y, z'
  2  '-y+1/2, x+1/2, z+1/2'
  3  '-x, -y, z'
  4  'y+1/2, -x+1/2, z+1/2'
  5  '-x+1/2, -y+1/2, -z+1/2'
  6  'y, -x, -z'
  7  'x+1/2, y+1/2, -z+1/2'
  8  '-y, x, -z'
loop_
 _atom_site_type_symbol
 _atom_site_label
 _atom_site_symmetry_multiplicity
 _atom_site_fract_x
 _atom_site_fract_y
 _atom_site_fract_z
 _atom_site_occupancy
  H  H0  8  -0.05269618  0.12598100  1.18639368  1
  H  H1  8  -0.00597470  0.36593725  0.84666236  1
  H  H2  8  0.02385394  0.29241607  0.55567989  1
  H  H3  8  0.11216180  0.65432641  0.46097113  1
  H  H4  8  0.16325464  0.78793703  -0.38532795  1
  H  H5  8  0.18377350  0.31425747  0.67326515  1
  C  C6  8  0.00869447  0.16221783  1.15999259  1
  C  C7  8  0.03677638  0.31024850  0.78401184  1
  C  C8  8  0.03814502  0.23258153  1.00124356  1
  C  C9  8  0.12974385  0.24532321  1.06997674  1
  C  C10  8  0.13878291  0.32418928  0.85878162  1
  C  C11  8  0.15260151  0.18239562  1.26930888  1
  O  O12  8  0.07874576  0.13149438  1.32645253  1
