###############################################################################################
#
# CIF file generated by modified CIFWriter class 
# in pymatgen (v2025.03.10) https://pymatgen.org/
#
###############################################################################################
data_MACE-OFF23(L)_21cd0972f927438
_symmetry_space_group_name_H-M   Pbcn
_cell_length_a   10.81336444
_cell_length_b   9.22338541
_cell_length_c   9.90121040
_cell_angle_alpha   90.00000000
_cell_angle_beta   90.00000000
_cell_angle_gamma   90.00000000
_symmetry_Int_Tables_number   60
_chemical_formula_moiety   'C6 H6 O'
_chemical_formula_sum   'H48 C48 O8'
_cell_volume   987.50541493
_cell_formula_units_Z   8
loop_
 _symmetry_equiv_pos_site_id
 _symmetry_equiv_pos_as_xyz
  1  'x, y, z'
  2  '-x, -y, -z'
  3  '-x+1/2, -y+1/2, z+1/2'
  4  'x+1/2, y+1/2, -z+1/2'
  5  'x+1/2, -y+1/2, -z'
  6  '-x+1/2, y+1/2, z'
  7  '-x, y, -z+1/2'
  8  'x, -y, z+1/2'
loop_
 _atom_site_type_symbol
 _atom_site_label
 _atom_site_symmetry_multiplicity
 _atom_site_fract_x
 _atom_site_fract_y
 _atom_site_fract_z
 _atom_site_occupancy
  H  H0  8  -0.06945945  0.35042196  0.12944057  1
  H  H1  8  0.07366486  -0.03625129  0.18927046  1
  H  H2  8  0.12425289  0.28039167  -0.22229272  1
  H  H3  8  0.18892283  0.46157260  0.54215630  1
  H  H4  8  0.19012834  0.07908082  0.25388237  1
  H  H5  8  0.19239058  -0.07763043  -0.01621801  1
  C  C6  8  -0.00194587  0.29150431  0.07184093  1
  C  C7  8  0.07460773  0.82129613  0.59313064  1
  C  C8  8  0.10465147  0.25404956  -0.11882748  1
  C  C9  8  0.13574721  0.05208569  0.16530166  1
  C  C10  8  0.14255322  0.15498163  -0.02781908  1
  C  C11  8  0.21183207  0.02594806  0.03131643  1
  O  O12  8  0.01567413  0.33931964  -0.05854954  1
