###############################################################################################
#
# CIF file generated by modified CIFWriter class 
# in pymatgen (v2025.03.10) https://pymatgen.org/
#
###############################################################################################
data_MACE-OFF23(L)_231741ced02b12c
_symmetry_space_group_name_H-M   P4_122
_cell_length_a   6.81448127
_cell_length_b   6.81448127
_cell_length_c   25.49293097
_cell_angle_alpha   90.00000000
_cell_angle_beta   90.00000000
_cell_angle_gamma   90.00000000
_symmetry_Int_Tables_number   91
_chemical_formula_moiety   'C6 H6 O'
_chemical_formula_sum   'H48 C48 O8'
_cell_volume   1183.81918527
_cell_formula_units_Z   8
loop_
 _symmetry_equiv_pos_site_id
 _symmetry_equiv_pos_as_xyz
  1  'x, y, z'
  2  '-y, x, z+1/4'
  3  '-x, -y, z+1/2'
  4  'y, -x, z+3/4'
  5  'x, -y, -z+1/2'
  6  '-y, -x, -z+1/4'
  7  '-x, y, -z'
  8  'y, x, -z+3/4'
loop_
 _atom_site_type_symbol
 _atom_site_label
 _atom_site_symmetry_multiplicity
 _atom_site_fract_x
 _atom_site_fract_y
 _atom_site_fract_z
 _atom_site_occupancy
  H  H0  8  -0.24397055  0.47452469  0.46228736  1
  H  H1  8  -0.22794207  0.52632571  0.10680011  1
  H  H2  8  -0.12011361  0.86503403  0.03469454  1
  H  H3  8  -0.09979237  0.86910594  0.10396541  1
  H  H4  8  0.21374552  0.44945194  0.30935168  1
  H  H5  8  0.22146343  0.23809164  0.68826754  1
  C  C6  8  -0.15237781  0.43473678  0.42921578  1
  C  C7  8  -0.07166517  0.21701506  0.43111202  1
  C  C8  8  0.06021057  0.49936284  0.06665638  1
  C  C9  8  0.13265614  0.30607598  0.43519477  1
  C  C10  8  0.21526787  0.37733391  0.06317341  1
  C  C11  8  0.31617455  0.32969494  0.31055905  1
  O  O12  8  0.38214062  0.48990134  0.05938940  1
