###############################################################################################
#
# CIF file generated by modified CIFWriter class 
# in pymatgen (v2025.03.10) https://pymatgen.org/
#
###############################################################################################
data_MACE-OFF23(L)_2503cf84161d766
_symmetry_space_group_name_H-M   Aea2
_cell_length_a   16.83431606
_cell_length_b   7.14325093
_cell_length_c   7.75561157
_cell_angle_alpha   90.00000000
_cell_angle_beta   90.00000000
_cell_angle_gamma   90.00000000
_symmetry_Int_Tables_number   41
_chemical_formula_moiety   'C6 H6 O'
_chemical_formula_sum   'H48 C48 O8'
_cell_volume   932.62581574
_cell_formula_units_Z   8
loop_
 _symmetry_equiv_pos_site_id
 _symmetry_equiv_pos_as_xyz
  1  'x, y, z'
  2  '-x, -y, z'
  3  '-x+1/2, y+1/2, z'
  4  'x+1/2, -y+1/2, z'
  5  'x, y+1/2, z+1/2'
  6  '-x, -y+1/2, z+1/2'
  7  '-x+1/2, y, z+1/2'
  8  'x+1/2, -y, z+1/2'
loop_
 _atom_site_type_symbol
 _atom_site_label
 _atom_site_symmetry_multiplicity
 _atom_site_fract_x
 _atom_site_fract_y
 _atom_site_fract_z
 _atom_site_occupancy
  H  H0  8  -0.01753444  0.32268252  0.70330073  1
  H  H1  8  0.04202406  0.12136403  0.73426441  1
  H  H2  8  0.06318871  0.48834284  0.92822736  1
  H  H3  8  0.12282659  0.28703095  0.95301576  1
  H  H4  8  0.12669075  0.33604936  0.30001130  1
  H  H5  8  0.24324943  0.61807517  0.16406027  1
  C  C6  8  0.04302743  0.27234321  0.71841144  1
  C  C7  8  0.09430992  0.37793127  0.85947363  1
  C  C8  8  0.10150504  0.34778427  0.58568518  1
  C  C9  8  0.13609455  0.37805457  0.43121535  1
  C  C10  8  0.14713873  0.44317076  0.71185418  1
  C  C11  8  0.20784814  0.52900247  0.62974458  1
  O  O12  8  0.20093327  0.49048543  0.45749901  1
