###############################################################################################
#
# CIF file generated by modified CIFWriter class 
# in pymatgen (v2025.03.10) https://pymatgen.org/
#
###############################################################################################
data_MACE-OFF23(L)_2a56766b88ee016
_symmetry_space_group_name_H-M   P4_12_12
_cell_length_a   8.69044705
_cell_length_b   8.69044705
_cell_length_c   13.45810293
_cell_angle_alpha   90.00000000
_cell_angle_beta   90.00000000
_cell_angle_gamma   90.00000000
_symmetry_Int_Tables_number   92
_chemical_formula_moiety   'C6 H6 O'
_chemical_formula_sum   'H48 C48 O8'
_cell_volume   1016.40801578
_cell_formula_units_Z   8
loop_
 _symmetry_equiv_pos_site_id
 _symmetry_equiv_pos_as_xyz
  1  'x, y, z'
  2  '-y+1/2, x+1/2, z+1/4'
  3  '-x, -y, z+1/2'
  4  'y+1/2, -x+1/2, z+3/4'
  5  'x+1/2, -y+1/2, -z+3/4'
  6  '-y, -x, -z+1/2'
  7  '-x+1/2, y+1/2, -z+1/4'
  8  'y, x, -z'
loop_
 _atom_site_type_symbol
 _atom_site_label
 _atom_site_symmetry_multiplicity
 _atom_site_fract_x
 _atom_site_fract_y
 _atom_site_fract_z
 _atom_site_occupancy
  H  H0  8  0.01762635  0.95842233  0.11085375  1
  H  H1  8  0.08283189  0.38024573  0.07368434  1
  H  H2  8  0.08420834  0.39634887  0.20467791  1
  H  H3  8  0.08969655  0.22796159  0.80872868  1
  H  H4  8  0.10721203  0.22176052  0.93995742  1
  H  H5  8  0.10853406  0.79877771  0.88220553  1
  C  C6  8  -0.04191649  0.58508367  0.12978790  1
  C  C7  8  -0.03950416  0.41944987  0.88539806  1
  C  C8  8  -0.01083007  0.83881382  0.11677489  1
  C  C9  8  0.06758510  0.70506294  0.12255653  1
  C  C10  8  0.09465497  0.29695399  0.87593714  1
  C  C11  8  0.14934581  0.68282263  0.87769095  1
  O  O12  8  -0.16542397  0.80582043  0.11982866  1
