###############################################################################################
#
# CIF file generated by modified CIFWriter class 
# in pymatgen (v2025.03.10) https://pymatgen.org/
#
###############################################################################################
data_MACE-OFF23(L)_2b3c0057b0d856
_symmetry_space_group_name_H-M   P4_12_12
_cell_length_a   7.53754495
_cell_length_b   7.53754495
_cell_length_c   16.53422744
_cell_angle_alpha   90.00000000
_cell_angle_beta   90.00000000
_cell_angle_gamma   90.00000000
_symmetry_Int_Tables_number   92
_chemical_formula_moiety   'C6 H6 O'
_chemical_formula_sum   'H48 C48 O8'
_cell_volume   939.38525173
_cell_formula_units_Z   8
loop_
 _symmetry_equiv_pos_site_id
 _symmetry_equiv_pos_as_xyz
  1  'x, y, z'
  2  '-y+1/2, x+1/2, z+1/4'
  3  '-x, -y, z+1/2'
  4  'y+1/2, -x+1/2, z+3/4'
  5  'x+1/2, -y+1/2, -z+3/4'
  6  '-y, -x, -z+1/2'
  7  '-x+1/2, y+1/2, -z+1/4'
  8  'y, x, -z'
loop_
 _atom_site_type_symbol
 _atom_site_label
 _atom_site_symmetry_multiplicity
 _atom_site_fract_x
 _atom_site_fract_y
 _atom_site_fract_z
 _atom_site_occupancy
  H  H0  8  -0.02510828  0.74463084  0.45136225  1
  H  H1  8  -0.02185047  0.24370713  0.80256676  1
  H  H2  8  0.08022431  0.10919927  0.57598745  1
  H  H3  8  0.08045506  0.34381641  0.57285352  1
  H  H4  8  0.09231481  0.60894616  0.67607839  1
  H  H5  8  0.09244696  0.84348532  0.67949206  1
  C  C6  8  0.10114591  0.74162356  0.48155537  1
  C  C7  8  0.10231561  0.24116784  0.77060936  1
  C  C8  8  0.14046592  0.22814541  0.60068827  1
  C  C9  8  0.15084741  0.72808474  0.65075455  1
  C  C10  8  0.15351271  0.23447289  0.69269991  1
  C  C11  8  0.15776395  0.73470732  0.55866071  1
  O  O12  8  0.24526236  0.25230723  0.18171676  1
