###############################################################################################
#
# CIF file generated by modified CIFWriter class 
# in pymatgen (v2025.03.10) https://pymatgen.org/
#
###############################################################################################
data_MACE-OFF23(L)_2d17a357d3eaa32
_symmetry_space_group_name_H-M   P4_32_12
_cell_length_a   6.72490730
_cell_length_b   6.72490730
_cell_length_c   23.52186255
_cell_angle_alpha   90.00000000
_cell_angle_beta   90.00000000
_cell_angle_gamma   90.00000000
_symmetry_Int_Tables_number   96
_chemical_formula_moiety   'C6 H6 O'
_chemical_formula_sum   'H48 C48 O8'
_cell_volume   1063.76160917
_cell_formula_units_Z   8
loop_
 _symmetry_equiv_pos_site_id
 _symmetry_equiv_pos_as_xyz
  1  'x, y, z'
  2  '-y+1/2, x+1/2, z+3/4'
  3  '-x, -y, z+1/2'
  4  'y+1/2, -x+1/2, z+1/4'
  5  'x+1/2, -y+1/2, -z+1/4'
  6  '-y, -x, -z+1/2'
  7  '-x+1/2, y+1/2, -z+3/4'
  8  'y, x, -z'
loop_
 _atom_site_type_symbol
 _atom_site_label
 _atom_site_symmetry_multiplicity
 _atom_site_fract_x
 _atom_site_fract_y
 _atom_site_fract_z
 _atom_site_occupancy
  H  H0  8  -0.09620915  0.21710436  0.14374919  1
  H  H1  8  -0.07251960  0.58823428  0.82106039  1
  H  H2  8  0.01466610  -0.21379478  0.16926814  1
  H  H3  8  0.06541483  -0.08519645  0.10491442  1
  H  H4  8  0.07072949  0.82208395  0.99336647  1
  H  H5  8  0.09143922  -0.14326408  0.79199949  1
  C  C6  8  -0.03302077  0.11875890  0.17544430  1
  C  C7  8  0.00352134  0.26244029  0.82421012  1
  C  C8  8  0.01550702  0.45841912  0.81273817  1
  C  C9  8  0.06865424  -0.07538776  0.15102815  1
  C  C10  8  0.17119675  0.17782032  0.19745086  1
  C  C11  8  0.18513961  0.78902109  0.52832733  1
  O  O12  8  0.00757613  0.69001402  0.53413916  1
