###############################################################################################
#
# CIF file generated by modified CIFWriter class 
# in pymatgen (v2025.03.10) https://pymatgen.org/
#
###############################################################################################
data_MACE-OFF23(L)_2d1724a5b269106
_symmetry_space_group_name_H-M   Pccn
_cell_length_a   13.14636284
_cell_length_b   7.28695796
_cell_length_c   9.83483399
_cell_angle_alpha   90.00000000
_cell_angle_beta   90.00000000
_cell_angle_gamma   90.00000000
_symmetry_Int_Tables_number   56
_chemical_formula_moiety   'C6 H6 O'
_chemical_formula_sum   'H48 C48 O8'
_cell_volume   942.14752626
_cell_formula_units_Z   8
loop_
 _symmetry_equiv_pos_site_id
 _symmetry_equiv_pos_as_xyz
  1  'x, y, z'
  2  '-x, -y, -z'
  3  '-x+1/2, -y+1/2, z'
  4  'x+1/2, y+1/2, -z'
  5  '-x, y+1/2, -z+1/2'
  6  'x, -y+1/2, z+1/2'
  7  'x+1/2, -y, -z+1/2'
  8  '-x+1/2, y, z+1/2'
loop_
 _atom_site_type_symbol
 _atom_site_label
 _atom_site_symmetry_multiplicity
 _atom_site_fract_x
 _atom_site_fract_y
 _atom_site_fract_z
 _atom_site_occupancy
  H  H0  8  0.05103350  0.65144221  0.21151143  1
  H  H1  8  0.05259412  0.63913072  0.51249237  1
  H  H2  8  0.12246756  0.50617154  1.00887466  1
  H  H3  8  0.13981130  0.16587918  0.67734010  1
  H  H4  8  0.18519025  0.64830834  0.21487193  1
  H  H5  8  0.18691572  0.64688510  0.50806882  1
  C  C6  8  0.11870175  0.73565217  0.20275144  1
  C  C7  8  0.12065760  0.59108188  0.78922534  1
  C  C8  8  0.12112599  0.63258179  0.57411142  1
  C  C9  8  0.12428949  0.48443095  0.90125329  1
  C  C10  8  0.12569632  0.47341777  0.67449623  1
  C  C11  8  0.13301441  0.29992152  0.72081032  1
  O  O12  8  0.13135107  0.30441739  0.86034205  1
