###############################################################################################
#
# CIF file generated by modified CIFWriter class 
# in pymatgen (v2025.03.10) https://pymatgen.org/
#
###############################################################################################
data_MACE-OFF23(L)_2da4d578b71b00f
_symmetry_space_group_name_H-M   P-4n2
_cell_length_a   13.45060218
_cell_length_b   13.45060218
_cell_length_c   5.89812197
_cell_angle_alpha   90.00000000
_cell_angle_beta   90.00000000
_cell_angle_gamma   90.00000000
_symmetry_Int_Tables_number   118
_chemical_formula_moiety   'C6 H6 O'
_chemical_formula_sum   'H48 C48 O8'
_cell_volume   1067.08055423
_cell_formula_units_Z   8
loop_
 _symmetry_equiv_pos_site_id
 _symmetry_equiv_pos_as_xyz
  1  'x, y, z'
  2  'y, -x, -z'
  3  '-x, -y, z'
  4  '-y, x, -z'
  5  '-x+1/2, y+1/2, z+1/2'
  6  '-y+1/2, -x+1/2, -z+1/2'
  7  'x+1/2, -y+1/2, z+1/2'
  8  'y+1/2, x+1/2, -z+1/2'
loop_
 _atom_site_type_symbol
 _atom_site_label
 _atom_site_symmetry_multiplicity
 _atom_site_fract_x
 _atom_site_fract_y
 _atom_site_fract_z
 _atom_site_occupancy
  H  H0  8  -0.17577952  0.28118361  1.06118678  1
  H  H1  8  -0.08709036  0.23833783  1.26112315  1
  H  H2  8  -0.06553359  0.42194105  0.96152815  1
  H  H3  8  -0.05756975  0.05828920  0.73975570  1
  H  H4  8  0.02454614  0.37803313  1.15627132  1
  H  H5  8  0.12987679  0.28735306  0.56071343  1
  C  C6  8  -0.09746644  0.26684221  1.09043592  1
  C  C7  8  -0.04704110  0.20813302  0.90378368  1
  C  C8  8  -0.02831892  0.13168200  0.76368250  1
  C  C9  8  -0.02699618  0.35627689  1.02345942  1
  C  C10  8  0.01607333  0.28805669  0.84123560  1
  C  C11  8  0.07170116  0.25701459  0.66463879  1
  O  O12  8  0.04495255  0.16070479  0.61592177  1
