###############################################################################################
#
# CIF file generated by modified CIFWriter class 
# in pymatgen (v2025.03.10) https://pymatgen.org/
#
###############################################################################################
data_MACE-OFF23(L)_2ec886f4e391016
_symmetry_space_group_name_H-M   I222
_cell_length_a   6.09595417
_cell_length_b   16.10397071
_cell_length_c   12.17100705
_cell_angle_alpha   90.00000000
_cell_angle_beta   90.00000000
_cell_angle_gamma   90.00000000
_symmetry_Int_Tables_number   23
_chemical_formula_moiety   'C6 H6 O'
_chemical_formula_sum   'H48 C48 O8'
_cell_volume   1194.81641219
_cell_formula_units_Z   8
loop_
 _symmetry_equiv_pos_site_id
 _symmetry_equiv_pos_as_xyz
  1  'x, y, z'
  2  '-x, y, -z'
  3  'x, -y, -z'
  4  '-x, -y, z'
  5  'x+1/2, y+1/2, z+1/2'
  6  '-x+1/2, y+1/2, -z+1/2'
  7  'x+1/2, -y+1/2, -z+1/2'
  8  '-x+1/2, -y+1/2, z+1/2'
loop_
 _atom_site_type_symbol
 _atom_site_label
 _atom_site_symmetry_multiplicity
 _atom_site_fract_x
 _atom_site_fract_y
 _atom_site_fract_z
 _atom_site_occupancy
  H  H0  8  0.10281776  0.23858120  0.65781571  1
  H  H1  8  0.10378890  0.09059965  0.59775940  1
  H  H2  8  0.10535180  0.40888845  0.09767388  1
  H  H3  8  0.10789605  0.26089883  0.15786089  1
  H  H4  8  0.24790200  0.21790838  0.97335699  1
  H  H5  8  0.24900465  0.47423031  0.62553768  1
  C  C6  8  0.24787647  0.20376358  0.68132512  1
  C  C7  8  0.24835136  0.17103778  0.79879010  1
  C  C8  8  0.24842602  0.82839378  0.09026735  1
  C  C9  8  0.24904616  0.10956026  0.64325600  1
  C  C10  8  0.24949967  0.08694556  0.76464955  1
  C  C11  8  0.24981694  0.46074732  0.35549439  1
  O  O12  8  0.24956251  0.09108422  0.94506255  1
