###############################################################################################
#
# CIF file generated by modified CIFWriter class 
# in pymatgen (v2025.03.10) https://pymatgen.org/
#
###############################################################################################
data_MACE-OFF23(L)_3282f8c9ebd7bda
_symmetry_space_group_name_H-M   Pbca
_cell_length_a   7.02959459
_cell_length_b   13.05180997
_cell_length_c   9.70472002
_cell_angle_alpha   90.00000000
_cell_angle_beta   90.00000000
_cell_angle_gamma   90.00000000
_symmetry_Int_Tables_number   61
_chemical_formula_moiety   'C6 H6 O'
_chemical_formula_sum   'H48 C48 O8'
_cell_volume   890.39770343
_cell_formula_units_Z   8
loop_
 _symmetry_equiv_pos_site_id
 _symmetry_equiv_pos_as_xyz
  1  'x, y, z'
  2  '-x, -y, -z'
  3  '-x+1/2, -y, z+1/2'
  4  'x+1/2, y, -z+1/2'
  5  'x+1/2, -y+1/2, -z'
  6  '-x+1/2, y+1/2, z'
  7  '-x, y+1/2, -z+1/2'
  8  'x, -y+1/2, z+1/2'
loop_
 _atom_site_type_symbol
 _atom_site_label
 _atom_site_symmetry_multiplicity
 _atom_site_fract_x
 _atom_site_fract_y
 _atom_site_fract_z
 _atom_site_occupancy
  H  H0  8  -0.04778425  0.18197378  0.34284568  1
  H  H1  8  -0.04505488  0.03093766  0.72353239  1
  H  H2  8  0.13090632  0.68723633  0.42901308  1
  H  H3  8  0.14743721  0.18334944  0.22873639  1
  H  H4  8  0.17355539  0.18517338  0.54214103  1
  H  H5  8  0.17526429  0.52292658  1.05065408  1
  C  C6  8  0.04574292  0.06882076  0.79620176  1
  C  C7  8  0.08897110  0.21716631  0.32174176  1
  C  C8  8  0.09054374  0.16638571  0.82736611  1
  C  C9  8  0.21731932  0.16400765  0.94138684  1
  C  C10  8  0.22973929  0.21966317  0.44863755  1
  C  C11  8  0.24545180  0.06481711  0.97469536  1
  O  O12  8  0.14217768  0.00527742  0.88503180  1
