###############################################################################################
#
# CIF file generated by modified CIFWriter class 
# in pymatgen (v2025.03.10) https://pymatgen.org/
#
###############################################################################################
data_MACE-OFF23(L)_36b6eedecb4b274
_symmetry_space_group_name_H-M   C2/c
_cell_length_a   12.06023120
_cell_length_b   7.50927812
_cell_length_c   12.43078819
_cell_angle_alpha   90.00000000
_cell_angle_beta   110.32096996
_cell_angle_gamma   90.00000000
_symmetry_Int_Tables_number   15
_chemical_formula_moiety   'C6 H6 O'
_chemical_formula_sum   'H48 C48 O8'
_cell_volume   1055.71105914
_cell_formula_units_Z   8
loop_
 _symmetry_equiv_pos_site_id
 _symmetry_equiv_pos_as_xyz
  1  'x, y, z'
  2  '-x, -y, -z'
  3  '-x, y, -z+1/2'
  4  'x, -y, z+1/2'
  5  'x+1/2, y+1/2, z'
  6  '-x+1/2, -y+1/2, -z'
  7  '-x+1/2, y+1/2, -z+1/2'
  8  'x+1/2, -y+1/2, z+1/2'
loop_
 _atom_site_type_symbol
 _atom_site_label
 _atom_site_symmetry_multiplicity
 _atom_site_fract_x
 _atom_site_fract_y
 _atom_site_fract_z
 _atom_site_occupancy
  H  H0  8  -0.00857837  0.40656007  0.59471004  1
  H  H1  8  -0.00553768  0.72565684  -0.02194368  1
  H  H2  8  0.07190149  0.84757219  0.22713982  1
  H  H3  8  0.07365398  0.02076371  0.61135413  1
  H  H4  8  0.09178525  0.65482809  0.74301681  1
  H  H5  8  0.22247653  1.06994646  0.96738974  1
  C  C6  8  0.04393018  0.68730911  0.06596670  1
  C  C7  8  0.09477094  0.15158742  0.65033593  1
  C  C8  8  0.16414032  0.27040556  0.30031007  1
  C  C9  8  0.17189096  0.63388013  0.08842758  1
  C  C10  8  0.21710124  0.22169962  0.66449108  1
  C  C11  8  0.23511317  0.95585734  0.92073992  1
  O  O12  8  0.13349916  0.87338386  0.85253260  1
