###############################################################################################
#
# CIF file generated by modified CIFWriter class 
# in pymatgen (v2025.03.10) https://pymatgen.org/
#
###############################################################################################
data_MACE-OFF23(L)_3b08cd19ca9c914
_symmetry_space_group_name_H-M   C2/c
_cell_length_a   13.15955680
_cell_length_b   9.18535518
_cell_length_c   9.96807947
_cell_angle_alpha   90.00000000
_cell_angle_beta   52.26261036
_cell_angle_gamma   90.00000000
_symmetry_Int_Tables_number   15
_chemical_formula_moiety   'C6 H6 O'
_chemical_formula_sum   'H48 C48 O8'
_cell_volume   952.85916154
_cell_formula_units_Z   8
loop_
 _symmetry_equiv_pos_site_id
 _symmetry_equiv_pos_as_xyz
  1  'x, y, z'
  2  '-x, -y, -z'
  3  '-x, y, -z+1/2'
  4  'x, -y, z+1/2'
  5  'x+1/2, y+1/2, z'
  6  '-x+1/2, -y+1/2, -z'
  7  '-x+1/2, y+1/2, -z+1/2'
  8  'x+1/2, -y+1/2, z+1/2'
loop_
 _atom_site_type_symbol
 _atom_site_label
 _atom_site_symmetry_multiplicity
 _atom_site_fract_x
 _atom_site_fract_y
 _atom_site_fract_z
 _atom_site_occupancy
  H  H0  8  -0.05754488  0.36350523  0.40919738  1
  H  H1  8  0.09186489  1.02363048  0.71283833  1
  H  H2  8  0.11945376  0.72942335  1.12498194  1
  H  H3  8  0.18103557  0.47682531  0.78376544  1
  H  H4  8  0.18208753  1.08525319  0.86035959  1
  H  H5  8  0.22090480  0.09531762  0.07492345  1
  C  C6  8  0.00645887  0.29823144  0.41671601  1
  C  C7  8  0.08402300  0.81719692  0.83424748  1
  C  C8  8  0.10238639  0.24742307  0.53462455  1
  C  C9  8  0.14379046  0.14967633  0.41043091  1
  C  C10  8  0.15293826  0.05985850  0.20593734  1
  C  C11  8  0.21506596  0.98093177  0.79559089  1
  O  O12  8  0.01705427  0.66049840  1.04061360  1
