###############################################################################################
#
# CIF file generated by modified CIFWriter class 
# in pymatgen (v2025.03.10) https://pymatgen.org/
#
###############################################################################################
data_MACE-OFF23(L)_3c05cb69009e0f5
_symmetry_space_group_name_H-M   Cmcm
_cell_length_a   12.89135786
_cell_length_b   13.27434772
_cell_length_c   6.96098093
_cell_angle_alpha   90.00000000
_cell_angle_beta   90.00000000
_cell_angle_gamma   90.00000000
_symmetry_Int_Tables_number   63
_chemical_formula_moiety   'C6 H6 O'
_chemical_formula_sum   'H48 C48 O8'
_cell_volume   1191.19345343
_cell_formula_units_Z   8
loop_
 _symmetry_equiv_pos_site_id
 _symmetry_equiv_pos_as_xyz
  1  'x, y, z'
  2  '-x, -y, -z+415/474'
  3  '-x, -y, z+1/2'
  4  'x, y, -z+89/237'
  5  'x, -y, -z+415/474'
  6  '-x, y, z'
  7  '-x, y, -z+89/237'
  8  'x, -y, z+1/2'
  9  'x+1/2, y+1/2, z'
  10  '-x+1/2, -y+1/2, -z+415/474'
  11  '-x+1/2, -y+1/2, z+1/2'
  12  'x+1/2, y+1/2, -z+89/237'
  13  'x+1/2, -y+1/2, -z+415/474'
  14  '-x+1/2, y+1/2, z'
  15  '-x+1/2, y+1/2, -z+89/237'
  16  'x+1/2, -y+1/2, z+1/2'
loop_
 _atom_site_type_symbol
 _atom_site_label
 _atom_site_symmetry_multiplicity
 _atom_site_fract_x
 _atom_site_fract_y
 _atom_site_fract_z
 _atom_site_occupancy
  H  H0  16  0.12644229  0.19731730  0.06044177  1
  H  H1  16  0.18452868  0.32356063  0.56071098  1
  H  H2  8  0.08787363  0.04810117  0.68772884  1
  H  H3  8  0.09630741  0.48754769  0.18767991  1
  C  C4  8  0.16384670  0.44032615  0.18776072  1
  C  C5  8  0.16411328  0.22705855  0.18789958  1
  C  C6  8  0.16476056  0.92109866  0.18775253  1
  C  C7  8  0.18349440  0.34048673  0.18779420  1
  C  C8  8  0.20728004  0.17169178  0.68775193  1
  C  C9  8  0.21433717  0.28620155  0.68782513  1
  O  O10  8  0.24332693  0.00917008  0.68776395  1
