###############################################################################################
#
# CIF file generated by modified CIFWriter class 
# in pymatgen (v2025.03.10) https://pymatgen.org/
#
###############################################################################################
data_MACE-OFF23(L)_3eabedcbaa80dd4
_symmetry_space_group_name_H-M   C222_1
_cell_length_a   7.88591595
_cell_length_b   7.27239788
_cell_length_c   16.71551781
_cell_angle_alpha   90.00000000
_cell_angle_beta   90.00000000
_cell_angle_gamma   90.00000000
_symmetry_Int_Tables_number   20
_chemical_formula_moiety   'C6 H6 O'
_chemical_formula_sum   'H48 C48 O8'
_cell_volume   958.62689719
_cell_formula_units_Z   8
loop_
 _symmetry_equiv_pos_site_id
 _symmetry_equiv_pos_as_xyz
  1  'x, y, z'
  2  '-x, -y, z+1/2'
  3  '-x, y, -z+1/2'
  4  'x, -y, -z'
  5  'x+1/2, y+1/2, z'
  6  '-x+1/2, -y+1/2, z+1/2'
  7  '-x+1/2, y+1/2, -z+1/2'
  8  'x+1/2, -y+1/2, -z'
loop_
 _atom_site_type_symbol
 _atom_site_label
 _atom_site_symmetry_multiplicity
 _atom_site_fract_x
 _atom_site_fract_y
 _atom_site_fract_z
 _atom_site_occupancy
  H  H0  8  -0.18120576  0.34447965  0.56369197  1
  H  H1  8  -0.03372853  -0.16321132  0.61009556  1
  H  H2  8  -0.01033244  0.31743119  0.49662022  1
  H  H3  8  0.00339938  0.47818515  0.34460666  1
  H  H4  8  0.17381199  0.49932971  0.41305861  1
  H  H5  8  0.22110056  0.36243484  0.25652663  1
  C  C6  8  -0.04708283  0.31229039  0.55906717  1
  C  C7  8  0.01285863  0.14219209  0.60413202  1
  C  C8  8  0.02409573  1.03538411  0.37328257  1
  C  C9  8  0.07143159  0.42726581  0.61660039  1
  C  C10  8  0.12008056  0.24543017  0.65513351  1
  C  C11  8  0.19273071  0.12748872  0.70709209  1
  O  O12  8  0.13623834  -0.04593511  0.68928823  1
