###############################################################################################
#
# CIF file generated by modified CIFWriter class 
# in pymatgen (v2025.03.10) https://pymatgen.org/
#
###############################################################################################
data_MACE-OFF23(L)_41162cc35f9704e
_symmetry_space_group_name_H-M   P-42_1c
_cell_length_a   9.52893366
_cell_length_b   9.52893366
_cell_length_c   10.47849686
_cell_angle_alpha   90.00000000
_cell_angle_beta   90.00000000
_cell_angle_gamma   90.00000000
_symmetry_Int_Tables_number   114
_chemical_formula_moiety   'C6 H6 O'
_chemical_formula_sum   'H48 C48 O8'
_cell_volume   951.45355761
_cell_formula_units_Z   8
loop_
 _symmetry_equiv_pos_site_id
 _symmetry_equiv_pos_as_xyz
  1  'x, y, z'
  2  'y, -x, -z'
  3  '-x, -y, z'
  4  '-y, x, -z'
  5  'x+1/2, -y+1/2, -z+1/2'
  6  'y+1/2, x+1/2, z+1/2'
  7  '-x+1/2, y+1/2, -z+1/2'
  8  '-y+1/2, -x+1/2, z+1/2'
loop_
 _atom_site_type_symbol
 _atom_site_label
 _atom_site_symmetry_multiplicity
 _atom_site_fract_x
 _atom_site_fract_y
 _atom_site_fract_z
 _atom_site_occupancy
  H  H0  8  -0.04658142  0.31813518  1.03068351  1
  H  H1  8  0.00613043  0.16192527  0.45600528  1
  H  H2  8  0.02737095  0.87063047  0.19001294  1
  H  H3  8  0.05087065  0.14753158  0.70252209  1
  H  H4  8  0.13277172  0.63652741  0.23460119  1
  H  H5  8  0.21547276  0.75086166  0.84255350  1
  C  C6  8  0.05169764  0.31829437  0.98078640  1
  C  C7  8  0.08604238  0.23917756  0.44005440  1
  C  C8  8  0.11143258  0.24433412  0.88566218  1
  C  C9  8  0.12630316  0.13620419  0.77958225  1
  C  C10  8  0.19531904  0.25532823  0.35986530  1
  C  C11  8  0.20304541  0.72498048  0.24889721  1
  O  O12  8  0.07717738  0.35641319  0.51598975  1
