###############################################################################################
#
# CIF file generated by modified CIFWriter class 
# in pymatgen (v2025.03.10) https://pymatgen.org/
#
###############################################################################################
data_MACE-OFF23(L)_42a8c8cad8fc3e8
_symmetry_space_group_name_H-M   I222
_cell_length_a   10.29461294
_cell_length_b   8.55647029
_cell_length_c   13.39131368
_cell_angle_alpha   90.00000000
_cell_angle_beta   90.00000000
_cell_angle_gamma   90.00000000
_symmetry_Int_Tables_number   23
_chemical_formula_moiety   'C6 H6 O'
_chemical_formula_sum   'H48 C48 O8'
_cell_volume   1179.58122786
_cell_formula_units_Z   8
loop_
 _symmetry_equiv_pos_site_id
 _symmetry_equiv_pos_as_xyz
  1  'x, y, z'
  2  '-x, -y, z'
  3  '-x, y, -z'
  4  'x, -y, -z'
  5  'x+1/2, y+1/2, z+1/2'
  6  '-x+1/2, -y+1/2, z+1/2'
  7  '-x+1/2, y+1/2, -z+1/2'
  8  'x+1/2, -y+1/2, -z+1/2'
loop_
 _atom_site_type_symbol
 _atom_site_label
 _atom_site_symmetry_multiplicity
 _atom_site_fract_x
 _atom_site_fract_y
 _atom_site_fract_z
 _atom_site_occupancy
  H  H0  8  -0.04775063  0.13946881  0.61384801  1
  H  H1  8  0.05706097  0.36533209  0.06762084  1
  H  H2  8  0.06725721  0.35052368  0.19888373  1
  H  H3  8  0.21297459  0.49834629  0.39726973  1
  H  H4  8  0.21833449  0.41575684  0.92934239  1
  H  H5  8  0.22454347  0.42977397  0.79792554  1
  C  C6  8  0.04991431  0.18293084  0.61633291  1
  C  C7  8  0.12338414  0.36386963  0.13069781  1
  C  C8  8  0.16971115  0.12042820  0.62407357  1
  C  C9  8  0.19205485  0.37911723  0.60939045  1
  C  C10  8  0.22445007  0.49663795  0.86676601  1
  C  C11  8  0.23983056  0.25457560  0.11994110  1
  O  O12  8  0.06256438  0.34157438  0.60792250  1
