###############################################################################################
#
# CIF file generated by modified CIFWriter class 
# in pymatgen (v2025.03.10) https://pymatgen.org/
#
###############################################################################################
data_MACE-OFF23(L)_42fd48b3f35ffdc
_symmetry_space_group_name_H-M   P-42c
_cell_length_a   12.35714170
_cell_length_b   12.35714170
_cell_length_c   6.83840975
_cell_angle_alpha   90.00000000
_cell_angle_beta   90.00000000
_cell_angle_gamma   90.00000000
_symmetry_Int_Tables_number   112
_chemical_formula_moiety   'C6 H6 O'
_chemical_formula_sum   'H48 C48 O8'
_cell_volume   1044.21799495
_cell_formula_units_Z   8
loop_
 _symmetry_equiv_pos_site_id
 _symmetry_equiv_pos_as_xyz
  1  'x, y, z'
  2  'y, -x, -z'
  3  '-x, -y, z'
  4  '-y, x, -z'
  5  'x, -y, -z+1/2'
  6  'y, x, z+1/2'
  7  '-x, y, -z+1/2'
  8  '-y, -x, z+1/2'
loop_
 _atom_site_type_symbol
 _atom_site_label
 _atom_site_symmetry_multiplicity
 _atom_site_fract_x
 _atom_site_fract_y
 _atom_site_fract_z
 _atom_site_occupancy
  H  H0  8  -0.07986086  0.28272283  -0.12671111  1
  H  H1  8  -0.07802141  0.28718118  0.13104608  1
  H  H2  8  0.05274609  0.86939592  0.62232975  1
  H  H3  8  0.05639911  0.13528190  0.13531276  1
  H  H4  8  0.10846357  0.46631672  0.51728862  1
  H  H5  8  0.28356156  0.32742298  0.48763716  1
  C  C6  8  -0.02764299  0.28051387  0.00122660  1
  C  C7  8  0.05698089  0.18410696  0.00335769  1
  C  C8  8  0.07001616  0.35604051  -0.00564192  1
  C  C9  8  0.12705286  0.44898643  -0.01253774  1
  C  C10  8  0.14555796  0.26957412  -0.00449608  1
  C  C11  8  0.24568666  0.31285766  -0.01052898  1
  O  O12  8  0.23490752  0.42312681  -0.01544324  1
