###############################################################################################
#
# CIF file generated by modified CIFWriter class 
# in pymatgen (v2025.03.10) https://pymatgen.org/
#
###############################################################################################
data_MACE-OFF23(L)_443d07367032778
_symmetry_space_group_name_H-M   P-4n2
_cell_length_a   11.82030797
_cell_length_b   11.82030797
_cell_length_c   6.94825418
_cell_angle_alpha   90.00000000
_cell_angle_beta   90.00000000
_cell_angle_gamma   90.00000000
_symmetry_Int_Tables_number   118
_chemical_formula_moiety   'C6 H6 O'
_chemical_formula_sum   'H48 C48 O8'
_cell_volume   970.80785490
_cell_formula_units_Z   8
loop_
 _symmetry_equiv_pos_site_id
 _symmetry_equiv_pos_as_xyz
  1  'x, y, z'
  2  'y, -x, -z'
  3  '-x, -y, z'
  4  '-y, x, -z'
  5  '-x+1/2, y+1/2, z+1/2'
  6  '-y+1/2, -x+1/2, -z+1/2'
  7  'x+1/2, -y+1/2, z+1/2'
  8  'y+1/2, x+1/2, -z+1/2'
loop_
 _atom_site_type_symbol
 _atom_site_label
 _atom_site_symmetry_multiplicity
 _atom_site_fract_x
 _atom_site_fract_y
 _atom_site_fract_z
 _atom_site_occupancy
  H  H0  8  -0.08812175  0.59030872  -0.05162365  1
  H  H1  8  -0.05003461  0.77533933  0.42114065  1
  H  H2  8  0.06239818  0.67721137  0.43499884  1
  H  H3  8  0.07734052  0.08500018  0.69568273  1
  H  H4  8  0.14395596  0.82721376  -0.23041085  1
  H  H5  8  0.17574330  0.19656302  0.67110092  1
  C  C6  8  -0.03021238  0.65785060  -0.02134521  1
  C  C7  8  0.00840470  0.71226251  0.13608179  1
  C  C8  8  0.02409712  0.74279770  0.34745422  1
  C  C9  8  0.08790122  0.79431163  0.07393070  1
  C  C10  8  0.09575379  0.78653996  -0.11932838  1
  C  C11  8  0.11060654  0.83578689  0.27743982  1
  O  O12  8  0.02312918  0.70322072  -0.17950881  1
