###############################################################################################
#
# CIF file generated by modified CIFWriter class 
# in pymatgen (v2025.03.10) https://pymatgen.org/
#
###############################################################################################
data_MACE-OFF23(L)_480fcc3948b1ad1
_symmetry_space_group_name_H-M   P4_32_12
_cell_length_a   14.69143577
_cell_length_b   14.69143577
_cell_length_c   4.63821015
_cell_angle_alpha   90.00000000
_cell_angle_beta   90.00000000
_cell_angle_gamma   90.00000000
_symmetry_Int_Tables_number   96
_chemical_formula_moiety   'C6 H6 O'
_chemical_formula_sum   'H48 C48 O8'
_cell_volume   1001.10332390
_cell_formula_units_Z   8
loop_
 _symmetry_equiv_pos_site_id
 _symmetry_equiv_pos_as_xyz
  1  'x, y, z'
  2  '-y+1/2, x+1/2, z+3/4'
  3  '-x, -y, z+1/2'
  4  'y+1/2, -x+1/2, z+1/4'
  5  'x+1/2, -y+1/2, -z+1/4'
  6  '-y, -x, -z+1/2'
  7  '-x+1/2, y+1/2, -z+3/4'
  8  'y, x, -z'
loop_
 _atom_site_type_symbol
 _atom_site_label
 _atom_site_symmetry_multiplicity
 _atom_site_fract_x
 _atom_site_fract_y
 _atom_site_fract_z
 _atom_site_occupancy
  H  H0  8  -0.14372250  0.18952009  0.45367784  1
  H  H1  8  -0.10762324  0.26352235  0.73097425  1
  H  H2  8  -0.01850276  0.38614512  0.02735579  1
  H  H3  8  -0.01579935  0.08615519  0.55178527  1
  H  H4  8  0.01875220  0.15528623  0.84577216  1
  H  H5  8  0.19565205  0.21840040  0.23776074  1
  C  C6  8  -0.08494803  0.22228179  0.55054882  1
  C  C7  8  -0.02035156  0.27005000  0.34369952  1
  C  C8  8  -0.00362038  0.15554464  0.62254316  1
  C  C9  8  0.00988836  0.33035632  0.14682100  1
  C  C10  8  0.05322935  0.21147417  0.41390902  1
  C  C11  8  0.12592264  0.23882468  0.25938186  1
  O  O12  8  0.09991587  0.31157820  0.09267986  1
