###############################################################################################
#
# CIF file generated by modified CIFWriter class 
# in pymatgen (v2025.03.10) https://pymatgen.org/
#
###############################################################################################
data_MACE-OFF23(L)_48e7601d4742af1
_symmetry_space_group_name_H-M   P4_12_12
_cell_length_a   5.19160367
_cell_length_b   5.19160367
_cell_length_c   33.39444002
_cell_angle_alpha   90.00000000
_cell_angle_beta   90.00000000
_cell_angle_gamma   90.00000000
_symmetry_Int_Tables_number   92
_chemical_formula_moiety   'C6 H6 O'
_chemical_formula_sum   'H48 C48 O8'
_cell_volume   900.07194813
_cell_formula_units_Z   8
loop_
 _symmetry_equiv_pos_site_id
 _symmetry_equiv_pos_as_xyz
  1  'x, y, z'
  2  '-y+1/2, x+1/2, z+1/4'
  3  '-x, -y, z+1/2'
  4  'y+1/2, -x+1/2, z+3/4'
  5  'x+1/2, -y+1/2, -z+3/4'
  6  '-y, -x, -z+1/2'
  7  '-x+1/2, y+1/2, -z+1/4'
  8  'y, x, -z'
loop_
 _atom_site_type_symbol
 _atom_site_label
 _atom_site_symmetry_multiplicity
 _atom_site_fract_x
 _atom_site_fract_y
 _atom_site_fract_z
 _atom_site_occupancy
  H  H0  8  -0.13353458  0.66573956  0.19110758  1
  H  H1  8  -0.02958565  0.28972701  0.23322513  1
  H  H2  8  -0.02927940  0.30000228  1.01045090  1
  H  H3  8  0.04055256  0.20410139  0.13166303  1
  H  H4  8  0.06242981  0.63191974  0.81475854  1
  H  H5  8  0.08851662  0.85529999  0.21851002  1
  C  C6  8  -0.13552900  0.16687586  0.94967894  1
  C  C7  8  -0.07259396  0.37313056  0.98070738  1
  C  C8  8  -0.02456458  -0.26326756  0.06912417  1
  C  C9  8  0.05811954  0.67022278  0.20406280  1
  C  C10  8  0.07063937  0.08307305  0.10604113  1
  C  C11  8  0.08388236  0.22751968  0.92609071  1
  O  O12  8  -0.08590845  -0.12883112  0.10324756  1
