###############################################################################################
#
# CIF file generated by modified CIFWriter class 
# in pymatgen (v2025.03.10) https://pymatgen.org/
#
###############################################################################################
data_MACE-OFF23(L)_4cc6931f53e59bc
_symmetry_space_group_name_H-M   P-4c2
_cell_length_a   10.09879634
_cell_length_b   10.09879634
_cell_length_c   10.14266388
_cell_angle_alpha   90.00000000
_cell_angle_beta   90.00000000
_cell_angle_gamma   90.00000000
_symmetry_Int_Tables_number   116
_chemical_formula_moiety   'C6 H6 O'
_chemical_formula_sum   'H48 C48 O8'
_cell_volume   1034.40654860
_cell_formula_units_Z   8
loop_
 _symmetry_equiv_pos_site_id
 _symmetry_equiv_pos_as_xyz
  1  'x, y, z'
  2  'y, -x, -z'
  3  '-x, -y, z'
  4  '-y, x, -z'
  5  '-x, y, z+1/2'
  6  '-y, -x, -z+1/2'
  7  'x, -y, z+1/2'
  8  'y, x, -z+1/2'
loop_
 _atom_site_type_symbol
 _atom_site_label
 _atom_site_symmetry_multiplicity
 _atom_site_fract_x
 _atom_site_fract_y
 _atom_site_fract_z
 _atom_site_occupancy
  H  H0  8  -0.06250894  0.29171487  0.41075125  1
  H  H1  8  0.05267178  0.39423978  0.60184445  1
  H  H2  8  0.05718652  0.83720240  0.90878769  1
  H  H3  8  0.17215376  0.61453808  0.61161115  1
  H  H4  8  0.17593863  0.27166519  0.59603937  1
  H  H5  8  0.35219865  0.42607356  0.92182877  1
  C  C6  8  0.04276581  0.26930968  0.41617799  1
  C  C7  8  0.11592657  0.33787825  0.53631248  1
  C  C8  8  0.12915275  0.35416538  0.32704480  1
  C  C9  8  0.18292968  0.40214147  0.21550200  1
  C  C10  8  0.19236240  0.41790450  0.43450887  1
  C  C11  8  0.28131546  0.49586756  0.88431482  1
  O  O12  8  0.27540655  0.49536053  0.24910456  1
