###############################################################################################
#
# CIF file generated by modified CIFWriter class 
# in pymatgen (v2025.03.10) https://pymatgen.org/
#
###############################################################################################
data_MACE-OFF23(L)_4d0b7237d0b6de5
_symmetry_space_group_name_H-M   P4_2/n
_cell_length_a   12.03952792
_cell_length_b   12.03952792
_cell_length_c   7.90670695
_cell_angle_alpha   90.00000000
_cell_angle_beta   90.00000000
_cell_angle_gamma   90.00000000
_symmetry_Int_Tables_number   86
_chemical_formula_moiety   'C6 H6 O'
_chemical_formula_sum   'H48 C48 O8'
_cell_volume   1146.07901040
_cell_formula_units_Z   8
loop_
 _symmetry_equiv_pos_site_id
 _symmetry_equiv_pos_as_xyz
  1  'x, y, z'
  2  '-y+1/2, x+1/2, z+1/2'
  3  '-x, -y, z'
  4  'y+1/2, -x+1/2, z+1/2'
  5  '-x+1/2, -y+1/2, -z+1/2'
  6  'y, -x, -z'
  7  'x+1/2, y+1/2, -z+1/2'
  8  '-y, x, -z'
loop_
 _atom_site_type_symbol
 _atom_site_label
 _atom_site_symmetry_multiplicity
 _atom_site_fract_x
 _atom_site_fract_y
 _atom_site_fract_z
 _atom_site_occupancy
  H  H0  8  -0.09636837  0.16403845  1.02303531  1
  H  H1  8  0.01955938  0.67486485  0.46229244  1
  H  H2  8  0.05394520  0.43124016  1.20390386  1
  H  H3  8  0.12028627  0.23976346  0.63675747  1
  H  H4  8  0.12114384  0.77111044  0.52845944  1
  H  H5  8  0.14580212  0.32349855  1.26134314  1
  C  C6  8  -0.02634226  0.20884421  0.97394680  1
  C  C7  8  0.04656048  0.28466447  1.03261273  1
  C  C8  8  0.09108902  0.24976134  0.76400567  1
  C  C9  8  0.10380822  0.36321890  1.15566282  1
  C  C10  8  0.10477492  0.68382738  0.50510486  1
  C  C11  8  0.12060304  0.31109284  0.89899922  1
  O  O12  8  0.00082359  0.18631977  0.80856200  1
