###############################################################################################
#
# CIF file generated by modified CIFWriter class 
# in pymatgen (v2025.03.10) https://pymatgen.org/
#
###############################################################################################
data_MACE-OFF23(L)_4e900eeb63cd806
_symmetry_space_group_name_H-M   P42_12
_cell_length_a   9.95602305
_cell_length_b   9.95602305
_cell_length_c   10.05389337
_cell_angle_alpha   90.00000000
_cell_angle_beta   90.00000000
_cell_angle_gamma   90.00000000
_symmetry_Int_Tables_number   90
_chemical_formula_moiety   'C6 H6 O'
_chemical_formula_sum   'H48 C48 O8'
_cell_volume   996.56598989
_cell_formula_units_Z   8
loop_
 _symmetry_equiv_pos_site_id
 _symmetry_equiv_pos_as_xyz
  1  'x, y, z'
  2  '-y+1/2, x+1/2, z'
  3  '-x, -y, z'
  4  'y+1/2, -x+1/2, z'
  5  'x+1/2, -y+1/2, -z'
  6  '-y, -x, -z'
  7  '-x+1/2, y+1/2, -z'
  8  'y, x, -z'
loop_
 _atom_site_type_symbol
 _atom_site_label
 _atom_site_symmetry_multiplicity
 _atom_site_fract_x
 _atom_site_fract_y
 _atom_site_fract_z
 _atom_site_occupancy
  H  H0  8  -0.07935234  0.89900449  0.62641122  1
  H  H1  8  -0.07822679  0.89999009  0.87242652  1
  H  H2  8  -0.05298394  0.72431807  0.87265429  1
  H  H3  8  -0.05240439  0.72360295  0.62707908  1
  H  H4  8  0.13675558  0.68998921  0.45470197  1
  H  H5  8  0.13911201  0.68892771  0.04724618  1
  C  C6  8  -0.02131769  0.81840031  0.67099208  1
  C  C7  8  -0.02108098  0.81854535  0.82816591  1
  C  C8  8  0.13013783  0.83998139  0.67874760  1
  C  C9  8  0.13045439  0.83939075  0.81992204  1
  C  C10  8  0.14334784  0.74158274  0.36137578  1
  C  C11  8  0.14445509  0.74106688  0.14037325  1
  O  O12  8  0.13463385  0.66192035  0.25101853  1
