###############################################################################################
#
# CIF file generated by modified CIFWriter class 
# in pymatgen (v2025.03.10) https://pymatgen.org/
#
###############################################################################################
data_MACE-OFF23(L)_5087121f4de8672
_symmetry_space_group_name_H-M   P4_32_12
_cell_length_a   6.48179204
_cell_length_b   6.48179204
_cell_length_c   22.37383701
_cell_angle_alpha   90.00000000
_cell_angle_beta   90.00000000
_cell_angle_gamma   90.00000000
_symmetry_Int_Tables_number   96
_chemical_formula_moiety   'C6 H6 O'
_chemical_formula_sum   'H48 C48 O8'
_cell_volume   940.00606644
_cell_formula_units_Z   8
loop_
 _symmetry_equiv_pos_site_id
 _symmetry_equiv_pos_as_xyz
  1  'x, y, z'
  2  '-y+1/2, x+1/2, z+3/4'
  3  '-x, -y, z+1/2'
  4  'y+1/2, -x+1/2, z+1/4'
  5  'x+1/2, -y+1/2, -z+1/4'
  6  '-y, -x, -z+1/2'
  7  '-x+1/2, y+1/2, -z+3/4'
  8  'y, x, -z'
loop_
 _atom_site_type_symbol
 _atom_site_label
 _atom_site_symmetry_multiplicity
 _atom_site_fract_x
 _atom_site_fract_y
 _atom_site_fract_z
 _atom_site_occupancy
  H  H0  8  -0.15320744  0.69969250  0.08563057  1
  H  H1  8  0.00104610  0.43483487  0.44681110  1
  H  H2  8  0.06684654  0.60036692  0.75947916  1
  H  H3  8  0.07386390  0.15134281  0.71928565  1
  H  H4  8  0.07422273  1.27938093  0.12176095  1
  H  H5  8  0.20292367  0.25479662  0.78244305  1
  C  C6  8  -0.03581942  0.81563471  0.08109216  1
  C  C7  8  -0.03285787  0.77317792  0.43344737  1
  C  C8  8  0.00006868  0.58018080  0.47090400  1
  C  C9  8  0.08804456  1.13026577  0.10146388  1
  C  C10  8  0.14800751  0.83396726  0.05341718  1
  C  C11  8  0.16755616  0.27814556  0.73555779  1
  O  O12  8  0.00209732  1.07468764  0.38920609  1
