###############################################################################################
#
# CIF file generated by modified CIFWriter class 
# in pymatgen (v2025.03.10) https://pymatgen.org/
#
###############################################################################################
data_MACE-OFF23(L)_5092df6a5daa44
_symmetry_space_group_name_H-M   Pccn
_cell_length_a   8.22271645
_cell_length_b   11.69664619
_cell_length_c   10.47322962
_cell_angle_alpha   90.00000000
_cell_angle_beta   90.00000000
_cell_angle_gamma   90.00000000
_symmetry_Int_Tables_number   56
_chemical_formula_moiety   'C6 H6 O'
_chemical_formula_sum   'H48 C48 O8'
_cell_volume   1007.29642564
_cell_formula_units_Z   8
loop_
 _symmetry_equiv_pos_site_id
 _symmetry_equiv_pos_as_xyz
  1  'x, y, z'
  2  '-x, -y, -z'
  3  '-x+1/2, -y+1/2, z'
  4  'x+1/2, y+1/2, -z'
  5  'x+1/2, -y, -z+1/2'
  6  '-x+1/2, y, z+1/2'
  7  '-x, y+1/2, -z+1/2'
  8  'x, -y+1/2, z+1/2'
loop_
 _atom_site_type_symbol
 _atom_site_label
 _atom_site_symmetry_multiplicity
 _atom_site_fract_x
 _atom_site_fract_y
 _atom_site_fract_z
 _atom_site_occupancy
  H  H0  8  -0.11805678  0.23867976  0.38332897  1
  H  H1  8  -0.08307954  0.18112713  0.66231176  1
  H  H2  8  0.06962604  0.16665074  0.36574853  1
  H  H3  8  0.10878156  0.24677485  0.65214119  1
  H  H4  8  0.17815501  0.07229228  1.08947650  1
  H  H5  8  0.22465565  -0.07201614  0.73309984  1
  C  C6  8  0.00732532  0.25241936  0.85206595  1
  C  C7  8  0.02848102  0.19848314  0.71422192  1
  C  C8  8  0.09341600  0.14680463  0.90321314  1
  C  C9  8  0.10850058  0.09692226  0.78032285  1
  C  C10  8  0.16096543  0.07453002  0.98798433  1
  C  C11  8  0.18508696  -0.00424118  0.79481297  1
  O  O12  8  0.21845339  -0.01898288  0.92238793  1
