###############################################################################################
#
# CIF file generated by modified CIFWriter class 
# in pymatgen (v2025.03.10) https://pymatgen.org/
#
###############################################################################################
data_MACE-OFF23(L)_52b6cc026bc31b5
_symmetry_space_group_name_H-M   I-4
_cell_length_a   8.98195358
_cell_length_b   8.98195358
_cell_length_c   15.84197409
_cell_angle_alpha   90.00000000
_cell_angle_beta   90.00000000
_cell_angle_gamma   90.00000000
_symmetry_Int_Tables_number   82
_chemical_formula_moiety   'C6 H6 O'
_chemical_formula_sum   'H48 C48 O8'
_cell_volume   1278.05902508
_cell_formula_units_Z   8
loop_
 _symmetry_equiv_pos_site_id
 _symmetry_equiv_pos_as_xyz
  1  'x, y, z'
  2  'y, -x, -z'
  3  '-x, -y, z'
  4  '-y, x, -z'
  5  'x+1/2, y+1/2, z+1/2'
  6  'y+1/2, -x+1/2, -z+1/2'
  7  '-x+1/2, -y+1/2, z+1/2'
  8  '-y+1/2, x+1/2, -z+1/2'
loop_
 _atom_site_type_symbol
 _atom_site_label
 _atom_site_symmetry_multiplicity
 _atom_site_fract_x
 _atom_site_fract_y
 _atom_site_fract_z
 _atom_site_occupancy
  H  H0  8  -0.06260215  0.30116982  0.12246010  1
  H  H1  8  -0.06050700  0.86454029  0.78761223  1
  H  H2  8  -0.04924513  0.18335888  0.03330985  1
  H  H3  8  0.00832593  0.32015082  0.62628771  1
  H  H4  8  0.05207496  0.65384379  0.43333017  1
  H  H5  8  0.16389204  0.32441288  -0.01988680  1
  C  C6  8  0.01373765  0.23918684  0.08244543  1
  C  C7  8  0.03015522  0.81985244  0.82378189  1
  C  C8  8  0.12602421  0.14220714  0.12862706  1
  C  C9  8  0.12610066  0.33875028  0.62922475  1
  C  C10  8  0.15094530  0.33152750  0.04819900  1
  C  C11  8  0.22556318  0.75055220  0.90136976  1
  O  O12  8  0.04122469  0.66782668  0.82294199  1
