###############################################################################################
#
# CIF file generated by modified CIFWriter class 
# in pymatgen (v2025.03.10) https://pymatgen.org/
#
###############################################################################################
data_MACE-OFF23(L)_5578010c9a88373
_symmetry_space_group_name_H-M   Pbca
_cell_length_a   7.31522767
_cell_length_b   24.65467954
_cell_length_c   5.34135076
_cell_angle_alpha   90.00000000
_cell_angle_beta   90.00000000
_cell_angle_gamma   90.00000000
_symmetry_Int_Tables_number   61
_chemical_formula_moiety   'C6 H6 O'
_chemical_formula_sum   'H48 C48 O8'
_cell_volume   963.33714743
_cell_formula_units_Z   8
loop_
 _symmetry_equiv_pos_site_id
 _symmetry_equiv_pos_as_xyz
  1  'x, y, z'
  2  '-x, -y, -z'
  3  '-x, y+1/2, -z+1/2'
  4  'x, -y+1/2, z+1/2'
  5  '-x+1/2, -y, z+1/2'
  6  'x+1/2, y, -z+1/2'
  7  'x+1/2, -y+1/2, -z'
  8  '-x+1/2, y+1/2, z'
loop_
 _atom_site_type_symbol
 _atom_site_label
 _atom_site_symmetry_multiplicity
 _atom_site_fract_x
 _atom_site_fract_y
 _atom_site_fract_z
 _atom_site_occupancy
  H  H0  8  -0.03416969  0.17992895  0.42708990  1
  H  H1  8  0.02056444  0.56728245  0.78827585  1
  H  H2  8  0.14546513  0.20587370  0.24127792  1
  H  H3  8  0.15548002  0.19397942  0.80966641  1
  H  H4  8  0.16294237  0.71886167  0.62308834  1
  H  H5  8  0.17204241  0.04607818  0.15071306  1
  C  C6  8  0.11269787  0.17895097  0.39589241  1
  C  C7  8  0.11337225  0.91751724  1.14890209  1
  C  C8  8  0.19299382  0.12223075  0.38235442  1
  C  C9  8  0.20030952  0.62958311  0.60128044  1
  C  C10  8  0.21941136  0.07096492  0.30213867  1
  C  C11  8  0.23314538  0.18741164  0.63888127  1
  O  O12  8  0.16197919  0.54644561  0.46554719  1
