###############################################################################################
#
# CIF file generated by modified CIFWriter class 
# in pymatgen (v2025.03.10) https://pymatgen.org/
#
###############################################################################################
data_MACE-OFF23(L)_5d823ad5c4f694a
_symmetry_space_group_name_H-M   P-42c
_cell_length_a   9.16578662
_cell_length_b   9.16578662
_cell_length_c   12.46568553
_cell_angle_alpha   90.00000000
_cell_angle_beta   90.00000000
_cell_angle_gamma   90.00000000
_symmetry_Int_Tables_number   112
_chemical_formula_moiety   'C6 H6 O'
_chemical_formula_sum   'H48 C48 O8'
_cell_volume   1047.26273945
_cell_formula_units_Z   8
loop_
 _symmetry_equiv_pos_site_id
 _symmetry_equiv_pos_as_xyz
  1  'x, y, z'
  2  'y, -x, -z'
  3  '-x, -y, z'
  4  '-y, x, -z'
  5  'x, -y, -z+1/2'
  6  'y, x, z+1/2'
  7  '-x, y, -z+1/2'
  8  '-y, -x, z+1/2'
loop_
 _atom_site_type_symbol
 _atom_site_label
 _atom_site_symmetry_multiplicity
 _atom_site_fract_x
 _atom_site_fract_y
 _atom_site_fract_z
 _atom_site_occupancy
  H  H0  8  -0.05578377  0.24452276  0.37618756  1
  H  H1  8  0.10529004  0.44496498  0.63045876  1
  H  H2  8  0.11389582  0.25792429  0.66607292  1
  H  H3  8  0.25346320  0.38179759  -0.19140602  1
  H  H4  8  0.25839077  0.38185666  0.12568768  1
  H  H5  8  0.37081008  0.55477159  0.90750755  1
  C  C6  8  0.05495008  0.26150709  0.40069980  1
  C  C7  8  0.12580415  0.29853060  0.49122422  1
  C  C8  8  0.14877228  0.33905757  0.60811419  1
  C  C9  8  0.26540401  0.29324005  -0.13598086  1
  C  C10  8  0.27738645  0.30040089  0.46831909  1
  C  C11  8  0.31843121  0.33985733  0.58287950  1
  O  O12  8  0.15708351  0.24160644  0.32141477  1
