###############################################################################################
#
# CIF file generated by modified CIFWriter class 
# in pymatgen (v2025.03.10) https://pymatgen.org/
#
###############################################################################################
data_MACE-OFF23(L)_61eb6fb8babadb6
_symmetry_space_group_name_H-M   Pcca
_cell_length_a   19.26143590
_cell_length_b   4.39839204
_cell_length_c   11.26541334
_cell_angle_alpha   90.00000000
_cell_angle_beta   90.00000000
_cell_angle_gamma   90.00000000
_symmetry_Int_Tables_number   54
_chemical_formula_moiety   'C6 H6 O'
_chemical_formula_sum   'H48 C48 O8'
_cell_volume   954.39845557
_cell_formula_units_Z   8
loop_
 _symmetry_equiv_pos_site_id
 _symmetry_equiv_pos_as_xyz
  1  'x, y, z'
  2  '-x, -y, -z'
  3  '-x+1/2, -y, z'
  4  'x+1/2, y, -z'
  5  'x+1/2, -y, -z+1/2'
  6  '-x+1/2, y, z+1/2'
  7  '-x, y, -z+1/2'
  8  'x, -y, z+1/2'
loop_
 _atom_site_type_symbol
 _atom_site_label
 _atom_site_symmetry_multiplicity
 _atom_site_fract_x
 _atom_site_fract_y
 _atom_site_fract_z
 _atom_site_occupancy
  H  H0  8  0.03388847  -0.08253657  1.10374298  1
  H  H1  8  0.03797998  0.39591977  0.37498483  1
  H  H2  8  0.06785662  0.28883050  0.79126259  1
  H  H3  8  0.16077923  0.21455770  0.39073656  1
  H  H4  8  0.18797311  0.45609079  0.81240177  1
  H  H5  8  0.23271023  0.24612363  1.14268312  1
  C  C6  8  0.07640697  0.05788035  1.07541237  1
  C  C7  8  0.07699788  0.42648610  0.86967598  1
  C  C8  8  0.08868687  0.74993236  0.48436747  1
  C  C9  8  0.15437172  0.45877840  0.38234497  1
  C  C10  8  0.15754663  0.35957433  0.99683711  1
  C  C11  8  0.18426044  0.23503233  1.09600212  1
  O  O12  8  0.13477587  0.04895425  1.14517337  1
