###############################################################################################
#
# CIF file generated by modified CIFWriter class 
# in pymatgen (v2025.03.10) https://pymatgen.org/
#
###############################################################################################
data_MACE-OFF23(L)_697d6049f00ce15
_symmetry_space_group_name_H-M   Pbca
_cell_length_a   11.32070228
_cell_length_b   9.75444083
_cell_length_c   8.40794081
_cell_angle_alpha   90.00000000
_cell_angle_beta   90.00000000
_cell_angle_gamma   90.00000000
_symmetry_Int_Tables_number   61
_chemical_formula_moiety   'C6 H6 O'
_chemical_formula_sum   'H48 C48 O8'
_cell_volume   928.46469389
_cell_formula_units_Z   8
loop_
 _symmetry_equiv_pos_site_id
 _symmetry_equiv_pos_as_xyz
  1  'x, y, z'
  2  '-x, -y, -z'
  3  '-x, y+1/2, -z+1/2'
  4  'x, -y+1/2, z+1/2'
  5  '-x+1/2, -y, z+1/2'
  6  'x+1/2, y, -z+1/2'
  7  'x+1/2, -y+1/2, -z'
  8  '-x+1/2, y+1/2, z'
loop_
 _atom_site_type_symbol
 _atom_site_label
 _atom_site_symmetry_multiplicity
 _atom_site_fract_x
 _atom_site_fract_y
 _atom_site_fract_z
 _atom_site_occupancy
  H  H0  8  -0.08275668  0.07568991  0.25087803  1
  H  H1  8  -0.01310415  -0.14240690  0.12788303  1
  H  H2  8  0.02193824  0.05681219  0.40452688  1
  H  H3  8  0.09616870  -0.15866772  0.27731991  1
  H  H4  8  0.16836385  0.16285660  0.63255355  1
  H  H5  8  0.22771504  0.48340501  -0.09553071  1
  C  C6  8  0.00853603  0.04982989  0.27698360  1
  C  C7  8  0.05318468  -0.08779337  0.19613103  1
  C  C8  8  0.09943593  0.12406759  0.17533964  1
  C  C9  8  0.13713467  0.00177956  0.09962129  1
  C  C10  8  0.16240985  0.22864520  0.11367847  1
  C  C11  8  0.22062393  0.03632098  -0.00773656  1
  O  O12  8  0.23746472  0.17589271  0.00056079  1
