###############################################################################################
#
# CIF file generated by modified CIFWriter class 
# in pymatgen (v2025.03.10) https://pymatgen.org/
#
###############################################################################################
data_MACE-OFF23(L)_6eb034e0dc61217
_symmetry_space_group_name_H-M   I4_1
_cell_length_a   13.31510315
_cell_length_b   13.31510315
_cell_length_c   5.44460728
_cell_angle_alpha   90.00000000
_cell_angle_beta   90.00000000
_cell_angle_gamma   90.00000000
_symmetry_Int_Tables_number   80
_chemical_formula_moiety   'C6 H6 O'
_chemical_formula_sum   'H48 C48 O8'
_cell_volume   965.28516056
_cell_formula_units_Z   8
loop_
 _symmetry_equiv_pos_site_id
 _symmetry_equiv_pos_as_xyz
  1  'x, y, z'
  2  '-y, x+1/2, z+1/4'
  3  '-x+1/2, -y+1/2, z+1/2'
  4  'y+1/2, -x, z+3/4'
  5  'x+1/2, y+1/2, z+1/2'
  6  '-y+1/2, x, z+3/4'
  7  '-x, -y, z'
  8  'y, -x+1/2, z+1/4'
loop_
 _atom_site_type_symbol
 _atom_site_label
 _atom_site_symmetry_multiplicity
 _atom_site_fract_x
 _atom_site_fract_y
 _atom_site_fract_z
 _atom_site_occupancy
  H  H0  8  -0.13784051  0.27061258  0.91901856  1
  H  H1  8  -0.06529525  0.39310673  0.24893737  1
  H  H2  8  0.01934899  0.16404175  0.40771400  1
  H  H3  8  0.08897212  0.11765778  0.81327976  1
  H  H4  8  0.13960582  0.20167617  0.30806550  1
  H  H5  8  0.15715345  0.29046755  0.96771968  1
  C  C6  8  -0.08526114  0.30580107  0.79679831  1
  C  C7  8  -0.04554649  0.37192846  0.43286528  1
  C  C8  8  0.01124906  0.33636614  0.80840767  1
  C  C9  8  0.03638950  0.37809543  0.57699847  1
  C  C10  8  0.09817993  0.14354070  0.40509256  1
  C  C11  8  0.11507347  0.35679247  0.91429963  1
  O  O12  8  -0.12113211  0.32779937  0.56653960  1
