###############################################################################################
#
# CIF file generated by modified CIFWriter class 
# in pymatgen (v2025.03.10) https://pymatgen.org/
#
###############################################################################################
data_MACE-OFF23(L)_70bfe635be1016d
_symmetry_space_group_name_H-M   I-4
_cell_length_a   13.34910450
_cell_length_b   13.34910450
_cell_length_c   5.47359443
_cell_angle_alpha   90.00000000
_cell_angle_beta   90.00000000
_cell_angle_gamma   90.00000000
_symmetry_Int_Tables_number   82
_chemical_formula_moiety   'C6 H6 O'
_chemical_formula_sum   'H48 C48 O8'
_cell_volume   975.38681521
_cell_formula_units_Z   8
loop_
 _symmetry_equiv_pos_site_id
 _symmetry_equiv_pos_as_xyz
  1  'x, y, z'
  2  'y+1/2, -x+1/2, -z+1/2'
  3  '-x, -y, z'
  4  '-y+1/2, x+1/2, -z+1/2'
  5  'x+1/2, y+1/2, z+1/2'
  6  'y, -x, -z'
  7  '-x+1/2, -y+1/2, z+1/2'
  8  '-y, x, -z'
loop_
 _atom_site_type_symbol
 _atom_site_label
 _atom_site_symmetry_multiplicity
 _atom_site_fract_x
 _atom_site_fract_y
 _atom_site_fract_z
 _atom_site_occupancy
  H  H0  8  -0.04187496  0.65720531  0.77591828  1
  H  H1  8  0.06175448  0.08406833  0.25787519  1
  H  H2  8  0.09127196  0.65081988  0.12922315  1
  H  H3  8  0.11445421  0.31159823  0.17104701  1
  H  H4  8  0.16371375  0.82207047  0.10780027  1
  H  H5  8  0.21521734  0.26085529  0.69317714  1
  C  C6  8  0.00868850  0.71009670  0.69446781  1
  C  C7  8  0.07318203  0.71101132  0.50501523  1
  C  C8  8  0.07582234  0.86324073  0.67429481  1
  C  C9  8  0.11535235  0.80850072  0.49172769  1
  C  C10  8  0.13429982  0.67301055  0.28868074  1
  C  C11  8  0.18081039  0.78164629  0.27413264  1
  O  O12  8  0.00997118  0.80318832  0.80163705  1
