###############################################################################################
#
# CIF file generated by modified CIFWriter class 
# in pymatgen (v2025.03.10) https://pymatgen.org/
#
###############################################################################################
data_MACE-OFF23(L)_70c9540c25d1d5d
_symmetry_space_group_name_H-M   P4_2bc
_cell_length_a   13.30838310
_cell_length_b   13.30838310
_cell_length_c   5.35622008
_cell_angle_alpha   90.00000000
_cell_angle_beta   90.00000000
_cell_angle_gamma   90.00000000
_symmetry_Int_Tables_number   106
_chemical_formula_moiety   'C6 H6 O'
_chemical_formula_sum   'H48 C48 O8'
_cell_volume   948.65653293
_cell_formula_units_Z   8
loop_
 _symmetry_equiv_pos_site_id
 _symmetry_equiv_pos_as_xyz
  1  'x, y, z'
  2  '-y, x, z+1/2'
  3  '-x, -y, z'
  4  'y, -x, z+1/2'
  5  '-x+1/2, y+1/2, z'
  6  'y+1/2, x+1/2, z+1/2'
  7  'x+1/2, -y+1/2, z'
  8  '-y+1/2, -x+1/2, z+1/2'
loop_
 _atom_site_type_symbol
 _atom_site_label
 _atom_site_symmetry_multiplicity
 _atom_site_fract_x
 _atom_site_fract_y
 _atom_site_fract_z
 _atom_site_occupancy
  H  H0  8  -0.14742699  0.29870155  1.14093929  1
  H  H1  8  -0.02522998  0.36150667  0.48389765  1
  H  H2  8  0.05069857  0.43125989  0.69224192  1
  H  H3  8  0.07618252  0.08644999  1.09441552  1
  H  H4  8  0.10822931  0.23100550  0.45782938  1
  H  H5  8  0.18343157  0.30308989  0.66276570  1
  C  C6  8  -0.08049858  0.26994691  1.05450277  1
  C  C7  8  -0.01922896  0.29655822  0.86491301  1
  C  C8  8  0.02319687  0.35672339  0.64666944  1
  C  C9  8  0.04078109  0.15408703  1.02895988  1
  C  C10  8  0.05763042  0.22297827  0.84921105  1
  C  C11  8  0.10831426  0.27430008  0.62937501  1
  O  O12  8  -0.04379402  0.18294350  1.15748533  1
