###############################################################################################
#
# CIF file generated by modified CIFWriter class 
# in pymatgen (v2025.03.10) https://pymatgen.org/
#
###############################################################################################
data_MACE-OFF23(L)_7133d6e8901467e
_symmetry_space_group_name_H-M   P-4b2
_cell_length_a   11.83574989
_cell_length_b   11.83574989
_cell_length_c   7.04039481
_cell_angle_alpha   90.00000000
_cell_angle_beta   90.00000000
_cell_angle_gamma   90.00000000
_symmetry_Int_Tables_number   117
_chemical_formula_moiety   'C6 H6 O'
_chemical_formula_sum   'H48 C48 O8'
_cell_volume   986.25353354
_cell_formula_units_Z   8
loop_
 _symmetry_equiv_pos_site_id
 _symmetry_equiv_pos_as_xyz
  1  'x, y, z'
  2  'y, -x, -z'
  3  '-x, -y, z'
  4  '-y, x, -z'
  5  '-x+1/2, y+1/2, z'
  6  '-y+1/2, -x+1/2, -z'
  7  'x+1/2, -y+1/2, z'
  8  'y+1/2, x+1/2, -z'
loop_
 _atom_site_type_symbol
 _atom_site_label
 _atom_site_symmetry_multiplicity
 _atom_site_fract_x
 _atom_site_fract_y
 _atom_site_fract_z
 _atom_site_occupancy
  H  H0  8  -0.08074877  0.73498890  -0.14766478  1
  H  H1  8  -0.07725008  0.61298097  0.36830157  1
  H  H2  8  0.03183069  0.63618214  -0.15696409  1
  H  H3  8  0.06024480  0.89116541  -0.13002211  1
  H  H4  8  0.12554797  0.15075962  0.58924203  1
  H  H5  8  0.17047695  0.79064759  -0.13506128  1
  C  C6  8  -0.02346003  0.67553250  0.30632578  1
  C  C7  8  0.00008628  0.71137033  -0.08712799  1
  C  C8  8  0.00228280  0.70793421  0.12846969  1
  C  C9  8  0.08154127  0.79770423  0.14195059  1
  C  C10  8  0.08871889  0.81059727  -0.07365867  1
  C  C11  8  0.10082968  0.81659821  0.32824866  1
  O  O12  8  0.03665060  0.74156405  0.43184203  1
