###############################################################################################
#
# CIF file generated by modified CIFWriter class 
# in pymatgen (v2025.03.10) https://pymatgen.org/
#
###############################################################################################
data_MACE-OFF23(L)_71da93e823ad9ba
_symmetry_space_group_name_H-M   Pnma
_cell_length_a   7.11489505
_cell_length_b   25.17852093
_cell_length_c   5.31245767
_cell_angle_alpha   90.00000000
_cell_angle_beta   90.00000000
_cell_angle_gamma   90.00000000
_symmetry_Int_Tables_number   62
_chemical_formula_moiety   'C6 H6 O'
_chemical_formula_sum   'H48 C48 O8'
_cell_volume   951.68712721
_cell_formula_units_Z   8
loop_
 _symmetry_equiv_pos_site_id
 _symmetry_equiv_pos_as_xyz
  1  'x, y, z'
  2  '-x, -y, -z'
  3  '-x+1/2, -y, z+1/2'
  4  'x+1/2, y, -z+1/2'
  5  'x+1/2, -y+1/2, -z+1/2'
  6  '-x+1/2, y+1/2, z+1/2'
  7  '-x, y+1/2, -z'
  8  'x, -y+1/2, z'
loop_
 _atom_site_type_symbol
 _atom_site_label
 _atom_site_symmetry_multiplicity
 _atom_site_fract_x
 _atom_site_fract_y
 _atom_site_fract_z
 _atom_site_occupancy
  H  H0  8  -0.04876054  0.19333482  0.89532818  1
  H  H1  8  0.04196321  0.04551398  0.67671817  1
  H  H2  8  0.14709113  0.70374879  0.59179686  1
  H  H3  8  0.14847117  0.20003615  1.28017041  1
  H  H4  8  0.14974509  0.55506010  0.83030702  1
  H  H5  8  0.15498531  0.19942060  0.70688740  1
  C  C6  8  0.09533097  0.17993658  0.87105909  1
  C  C7  8  0.10698577  0.06841013  0.82297246  1
  C  C8  8  0.12249636  0.37984411  0.88446304  1
  C  C9  8  0.21956976  0.18342172  1.11720090  1
  C  C10  8  0.22401862  0.57357015  0.67788135  1
  C  C11  8  0.23075607  0.12333730  1.10776406  1
  O  O12  8  0.20031410  0.03970127  1.00309614  1
