###############################################################################################
#
# CIF file generated by modified CIFWriter class 
# in pymatgen (v2025.03.10) https://pymatgen.org/
#
###############################################################################################
data_MACE-OFF23(L)_730eaffdfb690c0
_symmetry_space_group_name_H-M   C2/c
_cell_length_a   5.38925402
_cell_length_b   9.83740862
_cell_length_c   18.10080580
_cell_angle_alpha   90.00000000
_cell_angle_beta   98.12566085
_cell_angle_gamma   90.00000000
_symmetry_Int_Tables_number   15
_chemical_formula_moiety   'C6 H6 O'
_chemical_formula_sum   'H48 C48 O8'
_cell_volume   950.00331451
_cell_formula_units_Z   8
loop_
 _symmetry_equiv_pos_site_id
 _symmetry_equiv_pos_as_xyz
  1  'x, y, z'
  2  '-x, -y, -z'
  3  '-x, y, -z+1/2'
  4  'x, -y, z+1/2'
  5  'x+1/2, y+1/2, z'
  6  '-x+1/2, -y+1/2, -z'
  7  '-x+1/2, y+1/2, -z+1/2'
  8  'x+1/2, -y+1/2, z+1/2'
loop_
 _atom_site_type_symbol
 _atom_site_label
 _atom_site_symmetry_multiplicity
 _atom_site_fract_x
 _atom_site_fract_y
 _atom_site_fract_z
 _atom_site_occupancy
  H  H0  8  -0.13059162  1.06688343  0.92700568  1
  H  H1  8  -0.09679716  0.65045973  0.93910613  1
  H  H2  8  0.01431990  0.76475288  0.16454321  1
  H  H3  8  0.03126729  0.51286444  0.16865326  1
  H  H4  8  0.22374775  0.97794268  0.75533044  1
  H  H5  8  0.23460526  0.72818704  0.76078553  1
  C  C6  8  -0.05969422  0.02833681  0.40992513  1
  C  C7  8  -0.04017382  0.74482861  0.91667893  1
  C  C8  8  0.10366598  0.07022987  0.36481104  1
  C  C9  8  0.11519769  0.21433926  0.36877548  1
  C  C10  8  0.19625427  0.72291570  0.18650876  1
  C  C11  8  0.20658705  0.56264168  0.18992480  1
  O  O12  8  -0.14946937  0.14124418  0.44224576  1
