###############################################################################################
#
# CIF file generated by modified CIFWriter class 
# in pymatgen (v2025.03.10) https://pymatgen.org/
#
###############################################################################################
data_MACE-OFF23(L)_76104764f647069
_symmetry_space_group_name_H-M   Cmc2_1
_cell_length_a   22.08175039
_cell_length_b   6.89375631
_cell_length_c   7.35764261
_cell_angle_alpha   90.00000000
_cell_angle_beta   90.00000000
_cell_angle_gamma   90.00000000
_symmetry_Int_Tables_number   36
_chemical_formula_moiety   'C6 H6 O'
_chemical_formula_sum   'H48 C48 O8'
_cell_volume   1120.02601942
_cell_formula_units_Z   8
loop_
 _symmetry_equiv_pos_site_id
 _symmetry_equiv_pos_as_xyz
  1  'x, y, z'
  2  '-x, -y, z+1/2'
  3  '-x, y, z'
  4  'x, -y, z+1/2'
  5  'x+1/2, y+1/2, z'
  6  '-x+1/2, -y+1/2, z+1/2'
  7  '-x+1/2, y+1/2, z'
  8  'x+1/2, -y+1/2, z+1/2'
loop_
 _atom_site_type_symbol
 _atom_site_label
 _atom_site_symmetry_multiplicity
 _atom_site_fract_x
 _atom_site_fract_y
 _atom_site_fract_z
 _atom_site_occupancy
  H  H0  8  0.05372214  0.16007563  0.81120179  1
  H  H1  8  0.06194841  -0.03276478  0.65488186  1
  H  H2  8  0.06289870  0.43412660  0.33761985  1
  H  H3  8  0.16153952  0.13767559  0.89219727  1
  H  H4  8  0.17067689  -0.06075105  0.74264390  1
  H  H5  8  0.24221040  0.38305452  0.47441317  1
  C  C6  8  0.08223710  0.10097658  0.70414326  1
  C  C7  8  0.09804514  0.37339088  0.42101522  1
  C  C8  8  0.10198063  0.24489241  0.55863029  1
  C  C9  8  0.15138716  0.08329761  0.75698436  1
  C  C10  8  0.16400837  0.22634197  0.60446797  1
  C  C11  8  0.19564532  0.34360508  0.49332475  1
  O  O12  8  0.15543417  0.43443622  0.37960333  1
