###############################################################################################
#
# CIF file generated by modified CIFWriter class 
# in pymatgen (v2025.03.10) https://pymatgen.org/
#
###############################################################################################
data_MACE-OFF23(L)_76993e8e74c2174
_symmetry_space_group_name_H-M   P4/n
_cell_length_a   9.22184683
_cell_length_b   9.22184683
_cell_length_c   12.87920923
_cell_angle_alpha   90.00000000
_cell_angle_beta   90.00000000
_cell_angle_gamma   90.00000000
_symmetry_Int_Tables_number   85
_chemical_formula_moiety   'C6 H6 O'
_chemical_formula_sum   'H48 C48 O8'
_cell_volume   1095.27962159
_cell_formula_units_Z   8
loop_
 _symmetry_equiv_pos_site_id
 _symmetry_equiv_pos_as_xyz
  1  'x, y, z'
  2  '-y+1/2, x+1/2, z'
  3  '-x, -y, z'
  4  'y+1/2, -x+1/2, z'
  5  '-x+1/2, -y+1/2, -z'
  6  'y, -x, -z'
  7  'x+1/2, y+1/2, -z'
  8  '-y, x, -z'
loop_
 _atom_site_type_symbol
 _atom_site_label
 _atom_site_symmetry_multiplicity
 _atom_site_fract_x
 _atom_site_fract_y
 _atom_site_fract_z
 _atom_site_occupancy
  H  H0  8  -0.11974586  0.70922977  0.85557709  1
  H  H1  8  -0.01634391  0.83878187  0.57270981  1
  H  H2  8  0.01671096  0.20664633  0.39416349  1
  H  H3  8  0.04857287  0.24652329  0.09050541  1
  H  H4  8  0.08522261  0.67720080  0.58619768  1
  H  H5  8  0.17848077  0.30752185  0.38059254  1
  C  C6  8  -0.02442028  0.76397978  0.82827852  1
  C  C7  8  0.04013978  0.78774865  0.73586100  1
  C  C8  8  0.06539356  0.78395574  0.61919179  1
  C  C9  8  0.10573998  0.17576118  0.14252046  1
  C  C10  8  0.12418422  0.20710845  0.35973501  1
  C  C11  8  0.12977888  0.16704926  0.24554012  1
  O  O12  8  0.05941284  0.82774263  0.90305406  1
