###############################################################################################
#
# CIF file generated by modified CIFWriter class 
# in pymatgen (v2025.03.10) https://pymatgen.org/
#
###############################################################################################
data_MACE-OFF23(L)_774a66824f95efc
_symmetry_space_group_name_H-M   P-42_1c
_cell_length_a   11.32178834
_cell_length_b   11.32178834
_cell_length_c   7.43739761
_cell_angle_alpha   90.00000000
_cell_angle_beta   90.00000000
_cell_angle_gamma   90.00000000
_symmetry_Int_Tables_number   114
_chemical_formula_moiety   'C6 H6 O'
_chemical_formula_sum   'H48 C48 O8'
_cell_volume   953.34712825
_cell_formula_units_Z   8
loop_
 _symmetry_equiv_pos_site_id
 _symmetry_equiv_pos_as_xyz
  1  'x, y, z'
  2  'y, -x, -z'
  3  '-x, -y, z'
  4  '-y, x, -z'
  5  'x+1/2, -y+1/2, -z+1/2'
  6  'y+1/2, x+1/2, z+1/2'
  7  '-x+1/2, y+1/2, -z+1/2'
  8  '-y+1/2, -x+1/2, z+1/2'
loop_
 _atom_site_type_symbol
 _atom_site_label
 _atom_site_symmetry_multiplicity
 _atom_site_fract_x
 _atom_site_fract_y
 _atom_site_fract_z
 _atom_site_occupancy
  H  H0  8  -0.03523491  0.17084055  0.46785041  1
  H  H1  8  0.00044869  0.87498741  0.91783682  1
  H  H2  8  0.02380294  0.75645244  0.76896053  1
  H  H3  8  0.05815679  0.41712845  0.64440101  1
  H  H4  8  0.16297137  0.80152930  1.11266594  1
  H  H5  8  0.18463747  0.68769587  0.46120997  1
  C  C6  8  0.02069871  0.20431806  0.36281441  1
  C  C7  8  0.06736085  0.82421132  0.84791055  1
  C  C8  8  0.08439514  0.35148206  0.18728114  1
  C  C9  8  0.10146693  0.15934188  0.24913482  1
  C  C10  8  0.14190170  0.25270290  0.13759386  1
  C  C11  8  0.17123908  0.77860660  0.97144125  1
  O  O12  8  0.00979572  0.32316091  0.32689513  1
