###############################################################################################
#
# CIF file generated by modified CIFWriter class 
# in pymatgen (v2025.03.10) https://pymatgen.org/
#
###############################################################################################
data_MACE-OFF23(L)_79dc55e1dcdfef4
_symmetry_space_group_name_H-M   Cmce
_cell_length_a   13.68544718
_cell_length_b   9.63533670
_cell_length_c   6.78072397
_cell_angle_alpha   90.00000000
_cell_angle_beta   90.00000000
_cell_angle_gamma   90.00000000
_symmetry_Int_Tables_number   64
_chemical_formula_moiety   'C6 H6 O'
_chemical_formula_sum   'H48 C48 O8'
_cell_volume   894.13264979
_cell_formula_units_Z   8
loop_
 _symmetry_equiv_pos_site_id
 _symmetry_equiv_pos_as_xyz
  1  'x, y, z'
  2  '-x, -y, -z+19/219'
  3  'x+1/2, -y, -z+443/755'
  4  '-x+1/2, y, z+1/2'
  5  '-x, -y, z'
  6  'x, y, -z+19/219'
  7  '-x+1/2, y, -z+443/755'
  8  'x+1/2, -y, z+1/2'
  9  'x, y+1/2, z+1/2'
  10  '-x, -y+1/2, -z+443/755'
  11  'x+1/2, -y+1/2, -z+19/219'
  12  '-x+1/2, y+1/2, z'
  13  '-x, -y+1/2, z+1/2'
  14  'x, y+1/2, -z+443/755'
  15  '-x+1/2, y+1/2, -z+19/219'
  16  'x+1/2, -y+1/2, z'
loop_
 _atom_site_type_symbol
 _atom_site_label
 _atom_site_symmetry_multiplicity
 _atom_site_fract_x
 _atom_site_fract_y
 _atom_site_fract_z
 _atom_site_occupancy
  H  H0  16  0.19243781  0.19121145  0.67260034  1
  H  H1  16  0.20219063  -0.02237482  -0.08645348  1
  H  H2  8  -0.05670324  0.12952157  0.04345388  1
  H  H3  8  0.11154461  0.48233411  0.04328259  1
  C  C4  8  0.01304235  0.18012649  0.04344925  1
  C  C5  8  0.10532446  0.37136810  0.04338137  1
  C  C6  8  0.10721349  0.13976444  0.04342798  1
  C  C7  8  0.16613256  0.26095215  0.04337979  1
  C  C8  8  0.19501925  0.04291264  0.04343065  1
  C  C9  8  0.23859089  0.17844145  0.54339794  1
  O  O10  8  0.01094156  0.32216864  0.04337821  1
