###############################################################################################
#
# CIF file generated by modified CIFWriter class 
# in pymatgen (v2025.03.10) https://pymatgen.org/
#
###############################################################################################
data_MACE-OFF23(L)_7a79a5c0f90406f
_symmetry_space_group_name_H-M   Pban
_cell_length_a   9.61771771
_cell_length_b   13.75064235
_cell_length_c   7.08589775
_cell_angle_alpha   90.00000000
_cell_angle_beta   90.00000000
_cell_angle_gamma   90.00000000
_symmetry_Int_Tables_number   50
_chemical_formula_moiety   'C6 H6 O'
_chemical_formula_sum   'H48 C48 O8'
_cell_volume   937.10853450
_cell_formula_units_Z   8
loop_
 _symmetry_equiv_pos_site_id
 _symmetry_equiv_pos_as_xyz
  1  'x, y, z'
  2  '-x, -y, z'
  3  'x, -y, -z'
  4  '-x, y, -z'
  5  '-x+1/2, -y+1/2, -z'
  6  'x+1/2, y+1/2, -z'
  7  '-x+1/2, y+1/2, z'
  8  'x+1/2, -y+1/2, z'
loop_
 _atom_site_type_symbol
 _atom_site_label
 _atom_site_symmetry_multiplicity
 _atom_site_fract_x
 _atom_site_fract_y
 _atom_site_fract_z
 _atom_site_occupancy
  H  H0  8  -0.02767463  0.29748064  0.87317248  1
  H  H1  8  -0.02716307  0.29818968  0.62684846  1
  H  H2  8  0.02163141  0.11144620  0.24827196  1
  H  H3  8  0.12605745  0.44314295  0.24640739  1
  H  H4  8  0.18613583  0.19478381  0.87460330  1
  H  H5  8  0.18627104  0.19506217  0.62516474  1
  C  C6  8  0.03837100  0.30569764  0.75034407  1
  C  C7  8  0.13271206  0.10474350  0.24843658  1
  C  C8  8  0.13499097  0.39352031  0.75144474  1
  C  C9  8  0.17390066  0.24024622  0.75006121  1
  C  C10  8  0.17589707  0.48719632  0.75252003  1
  C  C11  8  0.24351066  0.16499966  0.24914144  1
  O  O12  8  0.18163148  0.01079448  0.24738105  1
