###############################################################################################
#
# CIF file generated by modified CIFWriter class 
# in pymatgen (v2025.03.10) https://pymatgen.org/
#
###############################################################################################
data_MACE-OFF23(L)_7ad497ba4629f44
_symmetry_space_group_name_H-M   I-4
_cell_length_a   8.26832035
_cell_length_b   8.26832035
_cell_length_c   13.53503405
_cell_angle_alpha   90.00000000
_cell_angle_beta   90.00000000
_cell_angle_gamma   90.00000000
_symmetry_Int_Tables_number   82
_chemical_formula_moiety   'C6 H6 O'
_chemical_formula_sum   'H48 C48 O8'
_cell_volume   925.32424596
_cell_formula_units_Z   8
loop_
 _symmetry_equiv_pos_site_id
 _symmetry_equiv_pos_as_xyz
  1  'x, y, z'
  2  'y+1/2, -x+1/2, -z+1/2'
  3  '-x, -y, z'
  4  '-y+1/2, x+1/2, -z+1/2'
  5  'x+1/2, y+1/2, z+1/2'
  6  'y, -x, -z'
  7  '-x+1/2, -y+1/2, z+1/2'
  8  '-y, x, -z'
loop_
 _atom_site_type_symbol
 _atom_site_label
 _atom_site_symmetry_multiplicity
 _atom_site_fract_x
 _atom_site_fract_y
 _atom_site_fract_z
 _atom_site_occupancy
  H  H0  8  -0.00208455  0.25168425  0.55242925  1
  H  H1  8  0.00444504  0.24877357  0.05123571  1
  H  H2  8  0.09689532  0.35215706  0.83074669  1
  H  H3  8  0.09735527  0.13919708  0.82902726  1
  H  H4  8  0.10000466  0.36040180  0.32848145  1
  H  H5  8  0.10000579  0.14750995  0.32987426  1
  C  C6  8  0.11164112  0.25088420  0.59075594  1
  C  C7  8  0.11771914  0.24934476  0.09008126  1
  C  C8  8  0.15285652  0.24648906  0.79774307  1
  C  C9  8  0.15610637  0.25339983  0.29723851  1
  C  C10  8  0.16152709  0.24879314  0.68541296  1
  C  C11  8  0.16638012  0.25132122  0.18497400  1
  O  O12  8  0.24655775  0.25206384  0.53071602  1
