###############################################################################################
#
# CIF file generated by modified CIFWriter class 
# in pymatgen (v2025.03.10) https://pymatgen.org/
#
###############################################################################################
data_MACE-OFF23(L)_7b729288951d84d
_symmetry_space_group_name_H-M   P4_322
_cell_length_a   9.26608521
_cell_length_b   9.26608521
_cell_length_c   13.45198665
_cell_angle_alpha   90.00000000
_cell_angle_beta   90.00000000
_cell_angle_gamma   90.00000000
_symmetry_Int_Tables_number   95
_chemical_formula_moiety   'C6 H6 O'
_chemical_formula_sum   'H48 C48 O8'
_cell_volume   1154.99208111
_cell_formula_units_Z   8
loop_
 _symmetry_equiv_pos_site_id
 _symmetry_equiv_pos_as_xyz
  1  'x, y, z'
  2  '-y, x, z+3/4'
  3  '-x, -y, z+1/2'
  4  'y, -x, z+1/4'
  5  'x, -y, -z+1/2'
  6  '-y, -x, -z+3/4'
  7  '-x, y, -z'
  8  'y, x, -z+1/4'
loop_
 _atom_site_type_symbol
 _atom_site_label
 _atom_site_symmetry_multiplicity
 _atom_site_fract_x
 _atom_site_fract_y
 _atom_site_fract_z
 _atom_site_occupancy
  H  H0  8  -0.08852428  0.61688419  0.57298396  1
  H  H1  8  -0.06868416  0.40314679  0.79718668  1
  H  H2  8  0.04408901  0.14697563  0.39699453  1
  H  H3  8  0.10011137  0.42903380  0.54638337  1
  H  H4  8  0.11992425  0.59058782  0.82372723  1
  H  H5  8  0.35294022  0.45785523  0.35197993  1
  C  C6  8  -0.01083978  0.60634846  0.63298304  1
  C  C7  8  0.10911840  0.48699056  0.61622046  1
  C  C8  8  0.11106310  0.28366096  0.86770981  1
  C  C9  8  0.15471830  0.17786960  0.38666714  1
  C  C10  8  0.21850827  0.39048214  0.88311318  1
  C  C11  8  0.32281087  0.34699646  0.36222183  1
  O  O12  8  0.17734287  0.32343557  0.37434648  1
