###############################################################################################
#
# CIF file generated by modified CIFWriter class 
# in pymatgen (v2025.03.10) https://pymatgen.org/
#
###############################################################################################
data_MACE-OFF23(L)_7e980876516db2d
_symmetry_space_group_name_H-M   Iba2
_cell_length_a   13.73366835
_cell_length_b   10.48400686
_cell_length_c   7.06378926
_cell_angle_alpha   90.00000000
_cell_angle_beta   90.00000000
_cell_angle_gamma   90.00000000
_symmetry_Int_Tables_number   45
_chemical_formula_moiety   'C6 H6 O'
_chemical_formula_sum   'H48 C48 O8'
_cell_volume   1017.07173604
_cell_formula_units_Z   8
loop_
 _symmetry_equiv_pos_site_id
 _symmetry_equiv_pos_as_xyz
  1  'x, y, z'
  2  '-x, -y, z'
  3  'x, -y, z+1/2'
  4  '-x, y, z+1/2'
  5  'x+1/2, y+1/2, z+1/2'
  6  '-x+1/2, -y+1/2, z+1/2'
  7  'x+1/2, -y+1/2, z'
  8  '-x+1/2, y+1/2, z'
loop_
 _atom_site_type_symbol
 _atom_site_label
 _atom_site_symmetry_multiplicity
 _atom_site_fract_x
 _atom_site_fract_y
 _atom_site_fract_z
 _atom_site_occupancy
  H  H0  8  0.07286488  0.26008375  0.22464327  1
  H  H1  8  0.07428437  0.06581363  0.42513799  1
  H  H2  8  0.08352011  0.16516588  0.01939675  1
  H  H3  8  0.08613976  -0.03091421  0.22321103  1
  H  H4  8  0.14680041  0.47680587  0.42889116  1
  H  H5  8  0.15067760  0.20514143  0.58583735  1
  C  C6  8  0.11039569  0.17897105  0.16250137  1
  C  C7  8  0.11209172  0.05545257  0.29095672  1
  C  C8  8  0.18474120  0.45357869  0.84546762  1
  C  C9  8  0.18678095  0.28053417  0.66016632  1
  C  C10  8  0.22060845  0.18031791  0.18164401  1
  C  C11  8  0.22200906  0.07042742  0.29861451  1
  O  O12  8  0.12766321  0.36243656  0.75994713  1
