###############################################################################################
#
# CIF file generated by modified CIFWriter class 
# in pymatgen (v2025.03.10) https://pymatgen.org/
#
###############################################################################################
data_MACE-OFF23(L)_7eed53aae9e9fd
_symmetry_space_group_name_H-M   P4_32_12
_cell_length_a   5.69416106
_cell_length_b   5.69416106
_cell_length_c   29.12574120
_cell_angle_alpha   90.00000000
_cell_angle_beta   90.00000000
_cell_angle_gamma   90.00000000
_symmetry_Int_Tables_number   96
_chemical_formula_moiety   'C6 H6 O'
_chemical_formula_sum   'H48 C48 O8'
_cell_volume   944.35759958
_cell_formula_units_Z   8
loop_
 _symmetry_equiv_pos_site_id
 _symmetry_equiv_pos_as_xyz
  1  'x, y, z'
  2  '-y+1/2, x+1/2, z+3/4'
  3  '-x, -y, z+1/2'
  4  'y+1/2, -x+1/2, z+1/4'
  5  'x+1/2, -y+1/2, -z+1/4'
  6  '-y, -x, -z+1/2'
  7  '-x+1/2, y+1/2, -z+3/4'
  8  'y, x, -z'
loop_
 _atom_site_type_symbol
 _atom_site_label
 _atom_site_symmetry_multiplicity
 _atom_site_fract_x
 _atom_site_fract_y
 _atom_site_fract_z
 _atom_site_occupancy
  H  H0  8  -0.06595494  0.73833324  0.72103223  1
  H  H1  8  0.02907099  -0.03823097  0.15765212  1
  H  H2  8  0.05383498  -0.27188696  0.03036322  1
  H  H3  8  0.05578801  0.55724410  0.84068533  1
  H  H4  8  0.16091481  0.77348099  0.59340826  1
  H  H5  8  0.24481182  0.25152627  0.40999370  1
  C  C6  8  -0.15283254  0.17019623  0.95235235  1
  C  C7  8  -0.09253423  0.21341050  0.90848603  1
  C  C8  8  -0.09169583  0.19731717  0.85633445  1
  C  C9  8  0.05245383  0.62358549  0.70315673  1
  C  C10  8  0.08379504  0.39019379  0.90901274  1
  C  C11  8  0.10449254  0.39292761  0.85694231  1
  O  O12  8  -0.02296406  0.31518051  0.98046676  1
