###############################################################################################
#
# CIF file generated by modified CIFWriter class 
# in pymatgen (v2025.03.10) https://pymatgen.org/
#
###############################################################################################
data_MACE-OFF23(L)_811850b5b9834bb
_symmetry_space_group_name_H-M   P4_2/n
_cell_length_a   12.99125896
_cell_length_b   12.99125896
_cell_length_c   5.49389641
_cell_angle_alpha   90.00000000
_cell_angle_beta   90.00000000
_cell_angle_gamma   90.00000000
_symmetry_Int_Tables_number   86
_chemical_formula_moiety   'C6 H6 O'
_chemical_formula_sum   'H48 C48 O8'
_cell_volume   927.22033035
_cell_formula_units_Z   8
loop_
 _symmetry_equiv_pos_site_id
 _symmetry_equiv_pos_as_xyz
  1  'x, y, z'
  2  '-y+1/2, x+1/2, z+1/2'
  3  '-x, -y, z'
  4  'y+1/2, -x+1/2, z+1/2'
  5  '-x+1/2, -y+1/2, -z+1/2'
  6  'y, -x, -z'
  7  'x+1/2, y+1/2, -z+1/2'
  8  '-y, x, -z'
loop_
 _atom_site_type_symbol
 _atom_site_label
 _atom_site_symmetry_multiplicity
 _atom_site_fract_x
 _atom_site_fract_y
 _atom_site_fract_z
 _atom_site_occupancy
  H  H0  8  0.04147184  0.43091822  0.38866438  1
  H  H1  8  0.04326609  0.19012644  -0.06061870  1
  H  H2  8  0.06373825  0.66367516  0.74593710  1
  H  H3  8  0.06833837  0.82878390  0.44046223  1
  H  H4  8  0.12551771  0.35870035  0.76283249  1
  H  H5  8  0.13942205  0.74510808  1.11141113  1
  C  C6  8  0.07606552  0.19988028  0.11741480  1
  C  C7  8  0.09907634  0.27872707  0.26776264  1
  C  C8  8  0.11098161  0.61252699  0.85578728  1
  C  C9  8  0.13334167  0.85412825  0.54532422  1
  C  C10  8  0.14372688  0.23664087  0.48121534  1
  C  C11  8  0.15786205  0.66417676  1.09183084  1
  O  O12  8  0.10372864  0.11019253  0.23223478  1
