###############################################################################################
#
# CIF file generated by modified CIFWriter class 
# in pymatgen (v2025.03.10) https://pymatgen.org/
#
###############################################################################################
data_MACE-OFF23(L)_81d0d96dc957884
_symmetry_space_group_name_H-M   P-42c
_cell_length_a   11.98598330
_cell_length_b   11.98598330
_cell_length_c   7.04146745
_cell_angle_alpha   90.00000000
_cell_angle_beta   90.00000000
_cell_angle_gamma   90.00000000
_symmetry_Int_Tables_number   112
_chemical_formula_moiety   'C6 H6 O'
_chemical_formula_sum   'H48 C48 O8'
_cell_volume   1011.60394212
_cell_formula_units_Z   8
loop_
 _symmetry_equiv_pos_site_id
 _symmetry_equiv_pos_as_xyz
  1  'x, y, z'
  2  'y, -x, -z'
  3  '-x, -y, z'
  4  '-y, x, -z'
  5  'x, -y, -z+1/2'
  6  'y, x, z+1/2'
  7  '-x, y, -z+1/2'
  8  '-y, -x, z+1/2'
loop_
 _atom_site_type_symbol
 _atom_site_label
 _atom_site_symmetry_multiplicity
 _atom_site_fract_x
 _atom_site_fract_y
 _atom_site_fract_z
 _atom_site_occupancy
  H  H0  8  0.07989411  0.39266389  0.58293241  1
  H  H1  8  0.08350099  0.08843737  0.37980117  1
  H  H2  8  0.09845859  0.41494653  0.33577295  1
  H  H3  8  0.14645842  0.41682623  -0.02791605  1
  H  H4  8  0.28158666  0.43059192  0.63607143  1
  H  H5  8  0.30066676  0.45193901  0.38910523  1
  C  C6  8  0.13313701  0.37541326  0.46159508  1
  C  C7  8  0.14365832  0.15177311  -0.09025629  1
  C  C8  8  0.16459502  0.25395524  0.43827436  1
  C  C9  8  0.17534628  0.33248935  -0.04120014  1
  C  C10  8  0.26180464  0.39889107  0.49552667  1
  C  C11  8  0.27426789  0.27918619  -0.03058407  1
  O  O12  8  0.09454935  0.25476875  -0.07841637  1
