###############################################################################################
#
# CIF file generated by modified CIFWriter class 
# in pymatgen (v2025.03.10) https://pymatgen.org/
#
###############################################################################################
data_MACE-OFF23(L)_85219b8a3c775a0
_symmetry_space_group_name_H-M   Aea2
_cell_length_a   22.22660532
_cell_length_b   10.46281041
_cell_length_c   4.02157555
_cell_angle_alpha   90.00000000
_cell_angle_beta   90.00000000
_cell_angle_gamma   90.00000000
_symmetry_Int_Tables_number   41
_chemical_formula_moiety   'C6 H6 O'
_chemical_formula_sum   'H48 C48 O8'
_cell_volume   935.22848455
_cell_formula_units_Z   8
loop_
 _symmetry_equiv_pos_site_id
 _symmetry_equiv_pos_as_xyz
  1  'x, y, z'
  2  '-x, -y, z'
  3  '-x+1/2, y+1/2, z'
  4  'x+1/2, -y+1/2, z'
  5  'x, y+1/2, z+1/2'
  6  '-x, -y+1/2, z+1/2'
  7  '-x+1/2, y, z+1/2'
  8  'x+1/2, -y, z+1/2'
loop_
 _atom_site_type_symbol
 _atom_site_label
 _atom_site_symmetry_multiplicity
 _atom_site_fract_x
 _atom_site_fract_y
 _atom_site_fract_z
 _atom_site_occupancy
  H  H0  8  0.04918511  0.44174518  0.86849921  1
  H  H1  8  0.06637341  0.83289678  0.84481777  1
  H  H2  8  0.17518390  0.98375481  -0.31400368  1
  H  H3  8  0.18095795  1.22148076  -0.34511656  1
  H  H4  8  0.21603203  0.98638296  0.06432320  1
  H  H5  8  0.22555901  0.72171965  0.52155095  1
  C  C6  8  0.07273705  0.52667664  0.79552947  1
  C  C7  8  0.08203011  0.73897030  0.78076022  1
  C  C8  8  0.12258373  1.05403010  0.11872819  1
  C  C9  8  0.12839385  0.68872647  0.60851464  1
  C  C10  8  0.18021842  1.03213492  -0.07638484  1
  C  C11  8  0.18569511  1.18291378  -0.09611860  1
  O  O12  8  0.04752840  0.63998392  0.89483852  1
