###############################################################################################
#
# CIF file generated by modified CIFWriter class 
# in pymatgen (v2025.03.10) https://pymatgen.org/
#
###############################################################################################
data_MACE-OFF23(L)_8d04cc03af7308f
_symmetry_space_group_name_H-M   Pbca
_cell_length_a   9.45026147
_cell_length_b   9.66664221
_cell_length_c   10.62640578
_cell_angle_alpha   90.00000000
_cell_angle_beta   90.00000000
_cell_angle_gamma   90.00000000
_symmetry_Int_Tables_number   61
_chemical_formula_moiety   'C6 H6 O'
_chemical_formula_sum   'H48 C48 O8'
_cell_volume   970.74657148
_cell_formula_units_Z   8
loop_
 _symmetry_equiv_pos_site_id
 _symmetry_equiv_pos_as_xyz
  1  'x, y, z'
  2  '-x, -y, -z'
  3  '-x+1/2, -y, z+1/2'
  4  'x+1/2, y, -z+1/2'
  5  'x+1/2, -y+1/2, -z'
  6  '-x+1/2, y+1/2, z'
  7  '-x, y+1/2, -z+1/2'
  8  'x, -y+1/2, z+1/2'
loop_
 _atom_site_type_symbol
 _atom_site_label
 _atom_site_symmetry_multiplicity
 _atom_site_fract_x
 _atom_site_fract_y
 _atom_site_fract_z
 _atom_site_occupancy
  H  H0  8  -0.01612447  -0.11349780  0.37055254  1
  H  H1  8  0.07332479  -0.14143329  0.00422790  1
  H  H2  8  0.15455770  0.22996684  0.80019162  1
  H  H3  8  0.16147388  0.09412287  -0.03720857  1
  H  H4  8  0.17427040  0.55159351  0.03131070  1
  H  H5  8  0.23343701  -0.18432114  0.07997990  1
  C  C6  8  0.03791536  -0.04254056  0.30956804  1
  C  C7  8  0.09848755  -0.04674106  0.19486840  1
  C  C8  8  0.13042412  0.16616148  0.27186258  1
  C  C9  8  0.15271032  -0.10520688  0.07047306  1
  C  C10  8  0.15584251  0.08640490  0.17061932  1
  C  C11  8  0.21228047  0.04433411  0.04239397  1
  O  O12  8  0.05606667  0.08859203  0.35774352  1
