###############################################################################################
#
# CIF file generated by modified CIFWriter class 
# in pymatgen (v2025.03.10) https://pymatgen.org/
#
###############################################################################################
data_MACE-OFF23(L)_927e1806071917d
_symmetry_space_group_name_H-M   P4_322
_cell_length_a   7.55387974
_cell_length_b   7.55387974
_cell_length_c   16.49024366
_cell_angle_alpha   90.00000000
_cell_angle_beta   90.00000000
_cell_angle_gamma   90.00000000
_symmetry_Int_Tables_number   95
_chemical_formula_moiety   'C6 H6 O'
_chemical_formula_sum   'H48 C48 O8'
_cell_volume   940.95142896
_cell_formula_units_Z   8
loop_
 _symmetry_equiv_pos_site_id
 _symmetry_equiv_pos_as_xyz
  1  'x, y, z'
  2  '-y, x, z+3/4'
  3  '-x, -y, z+1/2'
  4  'y, -x, z+1/4'
  5  'x, -y, -z+1/2'
  6  '-y, -x, -z+3/4'
  7  '-x, y, -z'
  8  'y, x, -z+1/4'
loop_
 _atom_site_type_symbol
 _atom_site_label
 _atom_site_symmetry_multiplicity
 _atom_site_fract_x
 _atom_site_fract_y
 _atom_site_fract_z
 _atom_site_occupancy
  H  H0  8  -0.02439650  0.25021687  0.92580410  1
  H  H1  8  0.08637422  0.13416911  0.69775815  1
  H  H2  8  0.08649956  0.36832580  0.69809498  1
  H  H3  8  0.13393858  0.41313250  0.55186316  1
  H  H4  8  0.25001353  0.47842690  0.17635255  1
  H  H5  8  0.36818757  0.58682629  -0.05154654  1
  C  C6  8  0.10076169  0.25035486  0.89479420  1
  C  C7  8  0.14554391  0.74897239  0.77530869  1
  C  C8  8  0.15494229  0.25054224  0.81706458  1
  C  C9  8  0.25012833  0.39669673  0.35489933  1
  C  C10  8  0.25043318  0.65673981  0.06727014  1
  C  C11  8  0.25090411  0.35381522  0.52506427  1
  O  O12  8  0.24850231  0.75000409  0.55611562  1
