###############################################################################################
#
# CIF file generated by modified CIFWriter class 
# in pymatgen (v2025.03.10) https://pymatgen.org/
#
###############################################################################################
data_MACE-OFF23(L)_94bdaffb567360b
_symmetry_space_group_name_H-M   I4_1
_cell_length_a   11.66207888
_cell_length_b   11.66207888
_cell_length_c   6.98141692
_cell_angle_alpha   90.00000000
_cell_angle_beta   90.00000000
_cell_angle_gamma   90.00000000
_symmetry_Int_Tables_number   80
_chemical_formula_moiety   'C6 H6 O'
_chemical_formula_sum   'H48 C48 O8'
_cell_volume   949.50121082
_cell_formula_units_Z   8
loop_
 _symmetry_equiv_pos_site_id
 _symmetry_equiv_pos_as_xyz
  1  'x, y, z'
  2  '-y, x+1/2, z+1/4'
  3  '-x+1/2, -y+1/2, z+1/2'
  4  'y+1/2, -x, z+3/4'
  5  'x+1/2, y+1/2, z+1/2'
  6  '-y+1/2, x, z+3/4'
  7  '-x, -y, z'
  8  'y, -x+1/2, z+1/4'
loop_
 _atom_site_type_symbol
 _atom_site_label
 _atom_site_symmetry_multiplicity
 _atom_site_fract_x
 _atom_site_fract_y
 _atom_site_fract_z
 _atom_site_occupancy
  H  H0  8  -0.12048999  0.70555986  0.24010887  1
  H  H1  8  -0.11966059  0.66712218  0.80140966  1
  H  H2  8  -0.01480835  0.59953047  0.27456633  1
  H  H3  8  0.03075896  0.85173275  0.19077633  1
  H  H4  8  0.08379149  0.62601685  0.97085626  1
  H  H5  8  0.13820908  0.74796366  0.23059701  1
  C  C6  8  -0.06277316  0.71519149  0.71099293  1
  C  C7  8  -0.03973089  0.68652193  0.31102739  1
  C  C8  8  -0.03560667  0.71658194  0.52309299  1
  C  C9  8  0.04915506  0.80203409  0.49556274  1
  C  C10  8  0.05632612  0.78053285  0.28131491  1
  C  C11  8  0.07098139  0.85004258  0.66738815  1
  O  O12  8  0.00234235  0.79736923  0.80056533  1
