###############################################################################################
#
# CIF file generated by modified CIFWriter class 
# in pymatgen (v2025.03.10) https://pymatgen.org/
#
###############################################################################################
data_MACE-OFF23(L)_976feda48945af1
_symmetry_space_group_name_H-M   P42_12
_cell_length_a   12.53370571
_cell_length_b   12.53370571
_cell_length_c   6.73187830
_cell_angle_alpha   90.00000000
_cell_angle_beta   90.00000000
_cell_angle_gamma   90.00000000
_symmetry_Int_Tables_number   90
_chemical_formula_moiety   'C6 H6 O'
_chemical_formula_sum   'H48 C48 O8'
_cell_volume   1057.53620048
_cell_formula_units_Z   8
loop_
 _symmetry_equiv_pos_site_id
 _symmetry_equiv_pos_as_xyz
  1  'x, y, z'
  2  '-y+1/2, x+1/2, z'
  3  '-x, -y, z'
  4  'y+1/2, -x+1/2, z'
  5  'x+1/2, -y+1/2, -z'
  6  '-y, -x, -z'
  7  '-x+1/2, y+1/2, -z'
  8  'y, x, -z'
loop_
 _atom_site_type_symbol
 _atom_site_label
 _atom_site_symmetry_multiplicity
 _atom_site_fract_x
 _atom_site_fract_y
 _atom_site_fract_z
 _atom_site_occupancy
  H  H0  8  0.03006044  0.20886893  0.61870660  1
  H  H1  8  0.03036534  0.20852187  0.88250784  1
  H  H2  8  0.04881999  0.29304843  0.25144190  1
  H  H3  8  0.09524509  0.39549072  0.61935970  1
  H  H4  8  0.09544532  0.39522367  0.88299508  1
  H  H5  8  0.10056356  0.85902380  0.25009150  1
  C  C6  8  0.07516862  0.23063441  0.75053002  1
  C  C7  8  0.11639456  0.35015620  0.75095316  1
  C  C8  8  0.13317420  0.27788693  0.25079039  1
  C  C9  8  0.16416877  0.80165069  0.25016500  1
  C  C10  8  0.19181948  0.19752013  0.74990957  1
  C  C11  8  0.19577929  0.72847097  0.75034135  1
  O  O12  8  0.13248434  0.69672473  0.25080633  1
