###############################################################################################
#
# CIF file generated by modified CIFWriter class 
# in pymatgen (v2025.03.10) https://pymatgen.org/
#
###############################################################################################
data_MACE-OFF23(L)_99dae69b730afe8
_symmetry_space_group_name_H-M   Pccn
_cell_length_a   6.97930143
_cell_length_b   22.95551192
_cell_length_c   5.86221403
_cell_angle_alpha   90.00000000
_cell_angle_beta   90.00000000
_cell_angle_gamma   90.00000000
_symmetry_Int_Tables_number   56
_chemical_formula_moiety   'C6 H6 O'
_chemical_formula_sum   'H48 C48 O8'
_cell_volume   939.20546066
_cell_formula_units_Z   8
loop_
 _symmetry_equiv_pos_site_id
 _symmetry_equiv_pos_as_xyz
  1  'x, y, z'
  2  '-x, -y, -z'
  3  '-x+1/2, -y+1/2, z'
  4  'x+1/2, y+1/2, -z'
  5  'x+1/2, -y, -z+1/2'
  6  '-x+1/2, y, z+1/2'
  7  '-x, y+1/2, -z+1/2'
  8  'x, -y+1/2, z+1/2'
loop_
 _atom_site_type_symbol
 _atom_site_label
 _atom_site_symmetry_multiplicity
 _atom_site_fract_x
 _atom_site_fract_y
 _atom_site_fract_z
 _atom_site_occupancy
  H  H0  8  -0.20211572  0.20308513  0.51525380  1
  H  H1  8  -0.17300924  0.08512742  1.00365639  1
  H  H2  8  -0.01351462  0.23088003  0.68470330  1
  H  H3  8  0.03349696  0.16596510  0.23284263  1
  H  H4  8  0.20908686  0.02245407  0.52933533  1
  H  H5  8  0.22425518  0.19127332  0.40437221  1
  C  C6  8  -0.08591155  0.09092883  0.85399174  1
  C  C7  8  -0.06218219  0.19342104  0.58708000  1
  C  C8  8  -0.04866088  0.13433499  0.70457224  1
  C  C9  8  0.08240465  0.11244018  0.54061844  1
  C  C10  8  0.08654225  0.16903070  0.40688666  1
  C  C11  8  0.12068843  0.05666435  0.59585510  1
  O  O12  8  0.01749279  0.04327392  0.78724304  1
