###############################################################################################
#
# CIF file generated by modified CIFWriter class 
# in pymatgen (v2025.03.10) https://pymatgen.org/
#
###############################################################################################
data_MACE-OFF23(L)_99dba4c0e518f5f
_symmetry_space_group_name_H-M   P4_12_12
_cell_length_a   6.30009547
_cell_length_b   6.30009547
_cell_length_c   24.64508287
_cell_angle_alpha   90.00000000
_cell_angle_beta   90.00000000
_cell_angle_gamma   90.00000000
_symmetry_Int_Tables_number   92
_chemical_formula_moiety   'C6 H6 O'
_chemical_formula_sum   'H48 C48 O8'
_cell_volume   978.19298671
_cell_formula_units_Z   8
loop_
 _symmetry_equiv_pos_site_id
 _symmetry_equiv_pos_as_xyz
  1  'x, y, z'
  2  '-y+1/2, x+1/2, z+1/4'
  3  '-x, -y, z+1/2'
  4  'y+1/2, -x+1/2, z+3/4'
  5  'x+1/2, -y+1/2, -z+3/4'
  6  '-y, -x, -z+1/2'
  7  '-x+1/2, y+1/2, -z+1/4'
  8  'y, x, -z'
loop_
 _atom_site_type_symbol
 _atom_site_label
 _atom_site_symmetry_multiplicity
 _atom_site_fract_x
 _atom_site_fract_y
 _atom_site_fract_z
 _atom_site_occupancy
  H  H0  8  -0.20628802  0.78585658  0.05772677  1
  H  H1  8  -0.14046170  0.85836399  0.23386898  1
  H  H2  8  -0.13520101  0.17909136  0.09891716  1
  H  H3  8  0.01222425  0.31619601  0.14921515  1
  H  H4  8  0.09309756  0.20235517  0.94913909  1
  H  H5  8  0.15517990  0.72286911  0.14673965  1
  C  C6  8  -0.10154965  0.73328885  0.26170804  1
  C  C7  8  -0.07485695  0.68041357  0.05187984  1
  C  C8  8  -0.00607122  0.29020163  0.10584462  1
  C  C9  8  0.00827661  0.49066755  0.32153854  1
  C  C10  8  0.05802449  0.68628351  0.29602396  1
  C  C11  8  0.20929020  0.23348432  0.07627476  1
  O  O12  8  0.07301693  0.74931450  0.01479935  1
