###############################################################################################
#
# CIF file generated by modified CIFWriter class 
# in pymatgen (v2025.03.10) https://pymatgen.org/
#
###############################################################################################
data_MACE-OFF23(L)_9a99e8b3bc4b11e
_symmetry_space_group_name_H-M   Pbcn
_cell_length_a   9.60075168
_cell_length_b   9.93924843
_cell_length_c   9.38467415
_cell_angle_alpha   90.00000000
_cell_angle_beta   90.00000000
_cell_angle_gamma   90.00000000
_symmetry_Int_Tables_number   60
_chemical_formula_moiety   'C6 H6 O'
_chemical_formula_sum   'H48 C48 O8'
_cell_volume   895.52554980
_cell_formula_units_Z   8
loop_
 _symmetry_equiv_pos_site_id
 _symmetry_equiv_pos_as_xyz
  1  'x, y, z'
  2  '-x, -y, -z'
  3  '-x+1/2, -y+1/2, z+1/2'
  4  'x+1/2, y+1/2, -z+1/2'
  5  'x+1/2, -y+1/2, -z'
  6  '-x+1/2, y+1/2, z'
  7  '-x, y, -z+1/2'
  8  'x, -y, z+1/2'
loop_
 _atom_site_type_symbol
 _atom_site_label
 _atom_site_symmetry_multiplicity
 _atom_site_fract_x
 _atom_site_fract_y
 _atom_site_fract_z
 _atom_site_occupancy
  H  H0  8  -0.02588914  0.16037227  1.01323179  1
  H  H1  8  -0.00437069  0.28591975  0.88198792  1
  H  H2  8  0.02105793  0.57226997  0.88292425  1
  H  H3  8  0.11763925  -0.03901127  0.67835862  1
  H  H4  8  0.19371318  0.23942724  1.13187490  1
  H  H5  8  0.21715330  0.35881155  0.99607984  1
  C  C6  8  0.04889441  0.79183065  0.44241518  1
  C  C7  8  0.13158738  0.41974632  0.36817412  1
  C  C8  8  0.13817189  0.11163462  0.85589302  1
  C  C9  8  0.17192781  0.01794987  0.75799300  1
  C  C10  8  0.18878187  0.74487241  0.51748503  1
  C  C11  8  0.23698302  0.34819198  0.42519880  1
  O  O12  8  0.18652553  0.50329996  0.26514955  1
