###############################################################################################
#
# CIF file generated by modified CIFWriter class 
# in pymatgen (v2025.03.10) https://pymatgen.org/
#
###############################################################################################
data_MACE-OFF23(L)_a28879cda65253c
_symmetry_space_group_name_H-M   P4_22_12
_cell_length_a   10.06748851
_cell_length_b   10.06748851
_cell_length_c   9.48475108
_cell_angle_alpha   90.00000000
_cell_angle_beta   90.00000000
_cell_angle_gamma   90.00000000
_symmetry_Int_Tables_number   94
_chemical_formula_moiety   'C6 H6 O'
_chemical_formula_sum   'H48 C48 O8'
_cell_volume   961.32054230
_cell_formula_units_Z   8
loop_
 _symmetry_equiv_pos_site_id
 _symmetry_equiv_pos_as_xyz
  1  'x, y, z'
  2  '-y+1/2, x+1/2, z+1/2'
  3  '-x, -y, z'
  4  'y+1/2, -x+1/2, z+1/2'
  5  'x+1/2, -y+1/2, -z+1/2'
  6  '-y, -x, -z'
  7  '-x+1/2, y+1/2, -z+1/2'
  8  'y, x, -z'
loop_
 _atom_site_type_symbol
 _atom_site_label
 _atom_site_symmetry_multiplicity
 _atom_site_fract_x
 _atom_site_fract_y
 _atom_site_fract_z
 _atom_site_occupancy
  H  H0  8  -0.01816204  0.64099491  0.88429535  1
  H  H1  8  0.01301548  0.40348330  0.57426723  1
  H  H2  8  0.08626411  -0.10891901  0.63635206  1
  H  H3  8  0.08626842  0.77843407  0.92113485  1
  H  H4  8  0.13194884  0.26577743  0.06985132  1
  H  H5  8  0.14446221  0.29050298  0.59943840  1
  C  C6  8  -0.03602242  0.15939070  0.33506445  1
  C  C7  8  0.03339914  0.25507157  0.40147784  1
  C  C8  8  0.08373811  0.67180324  0.90443399  1
  C  C9  8  0.08583837  0.34249028  0.52064691  1
  C  C10  8  0.09498159  0.25615225  0.17537721  1
  C  C11  8  0.11558075  0.31748306  0.29939377  1
  O  O12  8  0.00140171  0.15861684  0.19565879  1
