###############################################################################################
#
# CIF file generated by modified CIFWriter class 
# in pymatgen (v2025.03.10) https://pymatgen.org/
#
###############################################################################################
data_MACE-OFF23(L)_a9defee919e434
_symmetry_space_group_name_H-M   Pbca
_cell_length_a   12.31852470
_cell_length_b   13.50917828
_cell_length_c   5.41162289
_cell_angle_alpha   90.00000000
_cell_angle_beta   90.00000000
_cell_angle_gamma   90.00000000
_symmetry_Int_Tables_number   61
_chemical_formula_moiety   'C6 H6 O'
_chemical_formula_sum   'H48 C48 O8'
_cell_volume   900.56519192
_cell_formula_units_Z   8
loop_
 _symmetry_equiv_pos_site_id
 _symmetry_equiv_pos_as_xyz
  1  'x, y, z'
  2  '-x, -y, -z'
  3  '-x, y+1/2, -z+1/2'
  4  'x, -y+1/2, z+1/2'
  5  '-x+1/2, -y, z+1/2'
  6  'x+1/2, y, -z+1/2'
  7  'x+1/2, -y+1/2, -z'
  8  '-x+1/2, y+1/2, z'
loop_
 _atom_site_type_symbol
 _atom_site_label
 _atom_site_symmetry_multiplicity
 _atom_site_fract_x
 _atom_site_fract_y
 _atom_site_fract_z
 _atom_site_occupancy
  H  H0  8  -0.09533314  0.60429264  -0.08922373  1
  H  H1  8  -0.07754883  0.71927295  0.06178682  1
  H  H2  8  -0.03507717  0.51660616  0.28869836  1
  H  H3  8  -0.01723093  0.86903784  0.94175778  1
  H  H4  8  0.18345394  0.69929033  -0.36306522  1
  H  H5  8  0.21770997  0.05492277  0.26789725  1
  C  C6  8  -0.04154634  0.64703219  0.02874802  1
  C  C7  8  -0.00318055  0.59118324  0.27045152  1
  C  C8  8  0.07737503  0.64811763  -0.04891978  1
  C  C9  8  0.11147777  0.59807965  0.16798939  1
  C  C10  8  0.16634104  0.66530690  -0.18805852  1
  C  C11  8  0.22010244  0.58743508  0.15569818  1
  O  O12  8  0.24515373  0.12906808  -0.06233899  1
