###############################################################################################
#
# CIF file generated by modified CIFWriter class 
# in pymatgen (v2025.03.10) https://pymatgen.org/
#
###############################################################################################
data_MACE-OFF23(L)_ace6d2efcdbd664
_symmetry_space_group_name_H-M   P4_32_12
_cell_length_a   11.28729948
_cell_length_b   11.28729948
_cell_length_c   7.63284926
_cell_angle_alpha   90.00000000
_cell_angle_beta   90.00000000
_cell_angle_gamma   90.00000000
_symmetry_Int_Tables_number   96
_chemical_formula_moiety   'C6 H6 O'
_chemical_formula_sum   'H48 C48 O8'
_cell_volume   972.44888199
_cell_formula_units_Z   8
loop_
 _symmetry_equiv_pos_site_id
 _symmetry_equiv_pos_as_xyz
  1  'x, y, z'
  2  '-y+1/2, x+1/2, z+3/4'
  3  '-x, -y, z+1/2'
  4  'y+1/2, -x+1/2, z+1/4'
  5  'x+1/2, -y+1/2, -z+1/4'
  6  '-y, -x, -z+1/2'
  7  '-x+1/2, y+1/2, -z+3/4'
  8  'y, x, -z'
loop_
 _atom_site_type_symbol
 _atom_site_label
 _atom_site_symmetry_multiplicity
 _atom_site_fract_x
 _atom_site_fract_y
 _atom_site_fract_z
 _atom_site_occupancy
  H  H0  8  -0.14461051  0.34568626  0.50947918  1
  H  H1  8  -0.03687566  0.32490545  0.34449875  1
  H  H2  8  -0.03479746  0.10843684  0.41369851  1
  H  H3  8  0.04471240  0.64675102  0.49480791  1
  H  H4  8  0.09866449  0.14511845  0.14356357  1
  H  H5  8  0.13313424  -0.14441411  0.42467364  1
  C  C6  8  -0.06171291  0.16543916  0.52113442  1
  C  C7  8  -0.06155798  0.30242726  0.47793091  1
  C  C8  8  0.03399620  0.19248919  0.65508852  1
  C  C9  8  0.03506235  0.31514671  0.61552469  1
  C  C10  8  0.11278777  0.17375083  0.78465311  1
  C  C11  8  0.11440764  0.36709184  0.72270141  1
  O  O12  8  0.16238611  0.28102483  0.82850076  1
