###############################################################################################
#
# CIF file generated by modified CIFWriter class 
# in pymatgen (v2025.03.10) https://pymatgen.org/
#
###############################################################################################
data_MACE-OFF23(L)_aee2a6b41d7a5bc
_symmetry_space_group_name_H-M   C2/c
_cell_length_a   12.63158329
_cell_length_b   5.22213789
_cell_length_c   14.17245608
_cell_angle_alpha   90.00000000
_cell_angle_beta   97.09062022
_cell_angle_gamma   90.00000000
_symmetry_Int_Tables_number   15
_chemical_formula_moiety   'C6 H6 O'
_chemical_formula_sum   'H48 C48 O8'
_cell_volume   927.72030865
_cell_formula_units_Z   8
loop_
 _symmetry_equiv_pos_site_id
 _symmetry_equiv_pos_as_xyz
  1  'x, y, z'
  2  '-x, -y, -z'
  3  '-x, y, -z+1/2'
  4  'x, -y, z+1/2'
  5  'x+1/2, y+1/2, z'
  6  '-x+1/2, -y+1/2, -z'
  7  '-x+1/2, y+1/2, -z+1/2'
  8  'x+1/2, -y+1/2, z+1/2'
loop_
 _atom_site_type_symbol
 _atom_site_label
 _atom_site_symmetry_multiplicity
 _atom_site_fract_x
 _atom_site_fract_y
 _atom_site_fract_z
 _atom_site_occupancy
  H  H0  8  0.07523135  0.56459044  0.59325452  1
  H  H1  8  0.08934833  0.83395362  0.19155058  1
  H  H2  8  0.09859290  0.56448499  0.76395021  1
  H  H3  8  0.10211586  0.38222336  0.49328832  1
  H  H4  8  0.11574186  -0.00984892  0.59130487  1
  H  H5  8  0.12203103  -0.21723194  0.42805193  1
  C  C6  8  0.12531111  0.41585154  0.56853926  1
  C  C7  8  0.13437408  0.83505969  0.13122695  1
  C  C8  8  0.14439946  0.30166638  0.30970500  1
  C  C9  8  0.15721973  1.05262790  0.89890337  1
  C  C10  8  0.24454807  0.44947709  0.59699018  1
  C  C11  8  0.24739830  0.72459756  0.84664857  1
  O  O12  8  0.08791177  0.89855673  0.84190212  1
