###############################################################################################
#
# CIF file generated by modified CIFWriter class 
# in pymatgen (v2025.03.10) https://pymatgen.org/
#
###############################################################################################
data_MACE-OFF23(L)_af482e61e9c320b
_symmetry_space_group_name_H-M   I4
_cell_length_a   12.37019756
_cell_length_b   12.37019756
_cell_length_c   6.62778113
_cell_angle_alpha   90.00000000
_cell_angle_beta   90.00000000
_cell_angle_gamma   90.00000000
_symmetry_Int_Tables_number   79
_chemical_formula_moiety   'C6 H6 O'
_chemical_formula_sum   'H48 C48 O8'
_cell_volume   1014.19491755
_cell_formula_units_Z   8
loop_
 _symmetry_equiv_pos_site_id
 _symmetry_equiv_pos_as_xyz
  1  'x, y, z'
  2  '-y, x, z'
  3  '-x, -y, z'
  4  'y, -x, z'
  5  'x+1/2, y+1/2, z+1/2'
  6  '-y+1/2, x+1/2, z+1/2'
  7  '-x+1/2, -y+1/2, z+1/2'
  8  'y+1/2, -x+1/2, z+1/2'
loop_
 _atom_site_type_symbol
 _atom_site_label
 _atom_site_symmetry_multiplicity
 _atom_site_fract_x
 _atom_site_fract_y
 _atom_site_fract_z
 _atom_site_occupancy
  H  H0  8  -0.16020407  0.26846784  0.50663177  1
  H  H1  8  -0.10660867  0.37445518  -0.04758860  1
  H  H2  8  -0.06091127  0.36816603  0.54818821  1
  H  H3  8  -0.02124970  0.12587361  0.54223327  1
  H  H4  8  0.07895262  0.22523164  0.58062354  1
  H  H5  8  0.12209025  0.13565545  0.01120726  1
  C  C6  8  -0.07874640  0.29371244  0.46783499  1
  C  C7  8  -0.06056831  0.32006071  0.04522928  1
  C  C8  8  -0.05349447  0.29421514  0.24277242  1
  C  C9  8  0.00985670  0.20262175  0.48890415  1
  C  C10  8  0.02559590  0.21163168  0.26190029  1
  C  C11  8  0.06394630  0.18990994  0.07603909  1
  O  O12  8  0.01127544  0.25614617  -0.05783940  1
