###############################################################################################
#
# CIF file generated by modified CIFWriter class 
# in pymatgen (v2025.03.10) https://pymatgen.org/
#
###############################################################################################
data_MACE-OFF23(L)_af9cce730230555
_symmetry_space_group_name_H-M   I222
_cell_length_a   10.54459370
_cell_length_b   25.36919606
_cell_length_c   3.97904254
_cell_angle_alpha   90.00000000
_cell_angle_beta   90.00000000
_cell_angle_gamma   90.00000000
_symmetry_Int_Tables_number   23
_chemical_formula_moiety   'C6 H6 O'
_chemical_formula_sum   'H48 C48 O8'
_cell_volume   1064.42517375
_cell_formula_units_Z   8
loop_
 _symmetry_equiv_pos_site_id
 _symmetry_equiv_pos_as_xyz
  1  'x, y, z'
  2  '-x, y, -z'
  3  '-x, -y, z'
  4  'x, -y, -z'
  5  'x+1/2, y+1/2, z+1/2'
  6  '-x+1/2, y+1/2, -z+1/2'
  7  '-x+1/2, -y+1/2, z+1/2'
  8  'x+1/2, -y+1/2, -z+1/2'
loop_
 _atom_site_type_symbol
 _atom_site_label
 _atom_site_symmetry_multiplicity
 _atom_site_fract_x
 _atom_site_fract_y
 _atom_site_fract_z
 _atom_site_occupancy
  H  H0  8  -0.02513549  0.30187594  0.43428036  1
  H  H1  8  0.10237058  0.42733019  0.22330852  1
  H  H2  8  0.14009003  0.60145012  0.38272260  1
  H  H3  8  0.14490004  0.93766018  -0.09252165  1
  H  H4  8  0.17779262  0.27558957  0.03592244  1
  H  H5  8  0.18197564  0.96754522  0.29781384  1
  C  C6  8  0.06640129  0.84476750  0.45719915  1
  C  C7  8  0.14644985  0.88098980  0.32638590  1
  C  C8  8  0.17443079  0.40598616  0.36432991  1
  C  C9  8  0.18838284  0.93138635  0.15200374  1
  C  C10  8  0.23149230  0.35812348  0.19086969  1
  C  C11  8  0.24038033  0.69141181  0.93145752  1
  O  O12  8  0.13634206  0.80030325  0.52571928  1
