###############################################################################################
#
# CIF file generated by modified CIFWriter class 
# in pymatgen (v2025.03.10) https://pymatgen.org/
#
###############################################################################################
data_MACE-OFF23(L)_b08b7087bd96f21
_symmetry_space_group_name_H-M   Pccn
_cell_length_a   9.21748620
_cell_length_b   7.79677354
_cell_length_c   12.70270196
_cell_angle_alpha   90.00000000
_cell_angle_beta   90.00000000
_cell_angle_gamma   90.00000000
_symmetry_Int_Tables_number   56
_chemical_formula_moiety   'C6 H6 O'
_chemical_formula_sum   'H48 C48 O8'
_cell_volume   912.90066810
_cell_formula_units_Z   8
loop_
 _symmetry_equiv_pos_site_id
 _symmetry_equiv_pos_as_xyz
  1  'x, y, z'
  2  '-x, -y, -z'
  3  '-x+1/2, -y+1/2, z'
  4  'x+1/2, y+1/2, -z'
  5  '-x, y+1/2, -z+1/2'
  6  'x, -y+1/2, z+1/2'
  7  'x+1/2, -y, -z+1/2'
  8  '-x+1/2, y, z+1/2'
loop_
 _atom_site_type_symbol
 _atom_site_label
 _atom_site_symmetry_multiplicity
 _atom_site_fract_x
 _atom_site_fract_y
 _atom_site_fract_z
 _atom_site_occupancy
  H  H0  8  -0.02698005  0.09019820  0.67571623  1
  H  H1  8  0.00438376  0.19277165  0.45762250  1
  H  H2  8  0.12191498  0.23175503  0.66326126  1
  H  H3  8  0.14136360  -0.15591822  0.69232523  1
  H  H4  8  0.20854835  -0.01523056  0.18221328  1
  H  H5  8  0.22558794  -0.10788627  0.48711358  1
  C  C6  8  0.06356460  0.20209298  0.92398877  1
  C  C7  8  0.07903003  0.12370722  0.70717320  1
  C  C8  8  0.08609736  0.13898572  0.82655888  1
  C  C9  8  0.17992545  -0.00397892  0.83659468  1
  C  C10  8  0.18580851  -0.03432769  0.71841645  1
  C  C11  8  0.21025831  -0.02276024  0.93978663  1
  O  O12  8  0.13836871  0.10302735  0.99451084  1
