###############################################################################################
#
# CIF file generated by modified CIFWriter class 
# in pymatgen (v2025.03.10) https://pymatgen.org/
#
###############################################################################################
data_MACE-OFF23(L)_b1523f2f97494f7
_symmetry_space_group_name_H-M   Pbca
_cell_length_a   7.80857235
_cell_length_b   9.70662549
_cell_length_c   11.96126284
_cell_angle_alpha   90.00000000
_cell_angle_beta   90.00000000
_cell_angle_gamma   90.00000000
_symmetry_Int_Tables_number   61
_chemical_formula_moiety   'C6 H6 O'
_chemical_formula_sum   'H48 C48 O8'
_cell_volume   906.60257057
_cell_formula_units_Z   8
loop_
 _symmetry_equiv_pos_site_id
 _symmetry_equiv_pos_as_xyz
  1  'x, y, z'
  2  '-x, -y, -z'
  3  '-x+1/2, -y, z+1/2'
  4  'x+1/2, y, -z+1/2'
  5  'x+1/2, -y+1/2, -z'
  6  '-x+1/2, y+1/2, z'
  7  '-x, y+1/2, -z+1/2'
  8  'x, -y+1/2, z+1/2'
loop_
 _atom_site_type_symbol
 _atom_site_label
 _atom_site_symmetry_multiplicity
 _atom_site_fract_x
 _atom_site_fract_y
 _atom_site_fract_z
 _atom_site_occupancy
  H  H0  8  -0.02882726  0.55247023  0.17955149  1
  H  H1  8  0.02627658  0.16624696  0.52718600  1
  H  H2  8  0.07619423  0.71387642  0.72907190  1
  H  H3  8  0.14447725  0.47644879  0.25038861  1
  H  H4  8  0.20393177  -0.04884706  -0.06210229  1
  H  H5  8  0.24669399  0.71263029  0.30556196  1
  C  C6  8  0.10731273  0.24625474  0.04209922  1
  C  C7  8  0.10838680  0.55918029  0.19392920  1
  C  C8  8  0.17529735  0.70773281  0.22766876  1
  C  C9  8  0.20601781  0.03920920  -0.00806320  1
  C  C10  8  0.21846761  0.20431425  0.12123179  1
  C  C11  8  0.21976739  0.57233477  0.08992678  1
  O  O12  8  0.09975826  0.14523601  -0.03871906  1
