###############################################################################################
#
# CIF file generated by modified CIFWriter class 
# in pymatgen (v2025.03.10) https://pymatgen.org/
#
###############################################################################################
data_MACE-OFF23(L)_b2485ac076e4cc9
_symmetry_space_group_name_H-M   P4_12_12
_cell_length_a   6.49541321
_cell_length_b   6.49541321
_cell_length_c   25.71211529
_cell_angle_alpha   90.00000000
_cell_angle_beta   90.00000000
_cell_angle_gamma   90.00000000
_symmetry_Int_Tables_number   92
_chemical_formula_moiety   'C6 H6 O'
_chemical_formula_sum   'H48 C48 O8'
_cell_volume   1084.80424294
_cell_formula_units_Z   8
loop_
 _symmetry_equiv_pos_site_id
 _symmetry_equiv_pos_as_xyz
  1  'x, y, z'
  2  '-y+1/2, x+1/2, z+1/4'
  3  '-x, -y, z+1/2'
  4  'y+1/2, -x+1/2, z+3/4'
  5  'x+1/2, -y+1/2, -z+3/4'
  6  '-y, -x, -z+1/2'
  7  '-x+1/2, y+1/2, -z+1/4'
  8  'y, x, -z'
loop_
 _atom_site_type_symbol
 _atom_site_label
 _atom_site_symmetry_multiplicity
 _atom_site_fract_x
 _atom_site_fract_y
 _atom_site_fract_z
 _atom_site_occupancy
  H  H0  8  -0.11749507  0.75480964  0.71905757  1
  H  H1  8  -0.08436793  0.69380163  0.42805288  1
  H  H2  8  -0.07773502  0.90489678  0.89982839  1
  H  H3  8  0.01996256  0.53373263  0.28111452  1
  H  H4  8  0.07134866  0.35897083  0.67637313  1
  H  H5  8  0.14833711  0.69616333  0.71727086  1
  C  C6  8  -0.02310998  0.58729890  0.61690505  1
  C  C7  8  -0.02280304  0.54325397  0.41900406  1
  C  C8  8  -0.01361666  0.61415080  0.56501085  1
  C  C9  8  0.00574546  0.69290521  0.69519393  1
  C  C10  8  0.02152774  0.77949525  0.64050033  1
  C  C11  8  0.05600676  0.91716050  0.60243445  1
  O  O12  8  0.03469900  0.81737554  0.55552348  1
