###############################################################################################
#
# CIF file generated by modified CIFWriter class 
# in pymatgen (v2025.03.10) https://pymatgen.org/
#
###############################################################################################
data_MACE-OFF23(L)_b51207b6368e932
_symmetry_space_group_name_H-M   Pbcn
_cell_length_a   10.97788298
_cell_length_b   12.46236137
_cell_length_c   7.24549374
_cell_angle_alpha   90.00000000
_cell_angle_beta   90.00000000
_cell_angle_gamma   90.00000000
_symmetry_Int_Tables_number   60
_chemical_formula_moiety   'C6 H6 O'
_chemical_formula_sum   'H48 C48 O8'
_cell_volume   991.25849721
_cell_formula_units_Z   8
loop_
 _symmetry_equiv_pos_site_id
 _symmetry_equiv_pos_as_xyz
  1  'x, y, z'
  2  '-x, -y, -z'
  3  '-x+1/2, -y+1/2, z+1/2'
  4  'x+1/2, y+1/2, -z+1/2'
  5  'x+1/2, -y+1/2, -z'
  6  '-x+1/2, y+1/2, z'
  7  '-x, y, -z+1/2'
  8  'x, -y, z+1/2'
loop_
 _atom_site_type_symbol
 _atom_site_label
 _atom_site_symmetry_multiplicity
 _atom_site_fract_x
 _atom_site_fract_y
 _atom_site_fract_z
 _atom_site_occupancy
  H  H0  8  -0.01836262  0.36654250  0.11590588  1
  H  H1  8  0.00256900  0.38799782  -0.12072164  1
  H  H2  8  0.05173419  0.14184445  0.52396268  1
  H  H3  8  0.12838078  0.21443218  0.10910939  1
  H  H4  8  0.13749035  0.22523617  -0.13365452  1
  H  H5  8  0.21230253  0.61030922  0.09130054  1
  C  C6  8  0.04944095  0.63020439  0.50707362  1
  C  C7  8  0.13900292  0.27031000  -0.00506695  1
  C  C8  8  0.14265735  0.11057471  0.53210068  1
  C  C9  8  0.16172440  0.56168125  0.53985527  1
  C  C10  8  0.22945044  0.47321548  0.56754425  1
  C  C11  8  0.24286406  0.35056733  0.01916766  1
  O  O12  8  0.15018083  0.00193733  0.56274861  1
