###############################################################################################
#
# CIF file generated by modified CIFWriter class 
# in pymatgen (v2025.03.10) https://pymatgen.org/
#
###############################################################################################
data_MACE-OFF23(L)_bc9246c7e77b091
_symmetry_space_group_name_H-M   P4_32_12
_cell_length_a   13.87665661
_cell_length_b   13.87665661
_cell_length_c   5.60845856
_cell_angle_alpha   90.00000000
_cell_angle_beta   90.00000000
_cell_angle_gamma   90.00000000
_symmetry_Int_Tables_number   96
_chemical_formula_moiety   'C6 H6 O'
_chemical_formula_sum   'H48 C48 O8'
_cell_volume   1079.97374802
_cell_formula_units_Z   8
loop_
 _symmetry_equiv_pos_site_id
 _symmetry_equiv_pos_as_xyz
  1  'x, y, z'
  2  '-y+1/2, x+1/2, z+3/4'
  3  '-x, -y, z+1/2'
  4  'y+1/2, -x+1/2, z+1/4'
  5  'x+1/2, -y+1/2, -z+1/4'
  6  '-y, -x, -z+1/2'
  7  '-x+1/2, y+1/2, -z+3/4'
  8  'y, x, -z'
loop_
 _atom_site_type_symbol
 _atom_site_label
 _atom_site_symmetry_multiplicity
 _atom_site_fract_x
 _atom_site_fract_y
 _atom_site_fract_z
 _atom_site_occupancy
  H  H0  8  -0.11192325  0.78333122  1.01234004  1
  H  H1  8  -0.02056010  0.84813577  0.36018200  1
  H  H2  8  0.05636666  0.91867668  0.54093180  1
  H  H3  8  0.08389589  0.39781107  1.15012854  1
  H  H4  8  0.11211668  0.72961141  0.30430013  1
  H  H5  8  0.18667425  0.79981044  0.49480766  1
  C  C6  8  -0.05043550  0.75829582  0.91435189  1
  C  C7  8  0.00053205  0.78679973  0.72169059  1
  C  C8  8  0.03144875  0.84588379  0.50478631  1
  C  C9  8  0.06604366  0.64990498  0.85625632  1
  C  C10  8  0.07473815  0.71803763  0.68646757  1
  C  C11  8  0.11510078  0.76978953  0.46994100  1
  O  O12  8  -0.01079673  0.67444844  0.99895177  1
