###############################################################################################
#
# CIF file generated by modified CIFWriter class 
# in pymatgen (v2025.03.10) https://pymatgen.org/
#
###############################################################################################
data_MACE-OFF23(L)_bf260d3d8e1cc7f
_symmetry_space_group_name_H-M   P4_22_12
_cell_length_a   14.50665432
_cell_length_b   14.50665432
_cell_length_c   5.33555506
_cell_angle_alpha   90.00000000
_cell_angle_beta   90.00000000
_cell_angle_gamma   90.00000000
_symmetry_Int_Tables_number   94
_chemical_formula_moiety   'C6 H6 O'
_chemical_formula_sum   'H48 C48 O8'
_cell_volume   1122.83031898
_cell_formula_units_Z   8
loop_
 _symmetry_equiv_pos_site_id
 _symmetry_equiv_pos_as_xyz
  1  'x, y, z'
  2  '-y+1/2, x+1/2, z+1/2'
  3  '-x, -y, z'
  4  'y+1/2, -x+1/2, z+1/2'
  5  'x+1/2, -y+1/2, -z+1/2'
  6  '-y, -x, -z'
  7  '-x+1/2, y+1/2, -z+1/2'
  8  'y, x, -z'
loop_
 _atom_site_type_symbol
 _atom_site_label
 _atom_site_symmetry_multiplicity
 _atom_site_fract_x
 _atom_site_fract_y
 _atom_site_fract_z
 _atom_site_occupancy
  H  H0  8  -0.09749259  0.21595838  -0.12723248  1
  H  H1  8  -0.05474570  0.17116419  0.30621594  1
  H  H2  8  -0.01196821  0.14299664  -0.25063020  1
  H  H3  8  0.02301189  0.08834894  0.18339319  1
  H  H4  8  0.10923324  0.38593477  -0.28341529  1
  H  H5  8  0.18790625  0.28671969  0.40659861  1
  C  C6  8  -0.02712712  0.19261685  -0.10356140  1
  C  C7  8  -0.00066873  0.15924884  0.16895026  1
  C  C8  8  0.04653220  0.26639240  -0.07344778  1
  C  C9  8  0.07343426  0.23326347  0.16530422  1
  C  C10  8  0.10175883  0.33808431  -0.13099659  1
  C  C11  8  0.14489229  0.28485012  0.24333831  1
  O  O12  8  0.15014479  0.66284836  0.56328339  1
