###############################################################################################
#
# CIF file generated by modified CIFWriter class 
# in pymatgen (v2025.03.10) https://pymatgen.org/
#
###############################################################################################
data_MACE-OFF23(L)_c6400a51ddace9f
_symmetry_space_group_name_H-M   I-4
_cell_length_a   16.50230999
_cell_length_b   16.50230999
_cell_length_c   3.82898105
_cell_angle_alpha   90.00000000
_cell_angle_beta   90.00000000
_cell_angle_gamma   90.00000000
_symmetry_Int_Tables_number   82
_chemical_formula_moiety   'C6 H6 O'
_chemical_formula_sum   'H48 C48 O8'
_cell_volume   1042.73199369
_cell_formula_units_Z   8
loop_
 _symmetry_equiv_pos_site_id
 _symmetry_equiv_pos_as_xyz
  1  'x, y, z'
  2  'y, -x, -z'
  3  '-x, -y, z'
  4  '-y, x, -z'
  5  'x+1/2, y+1/2, z+1/2'
  6  'y+1/2, -x+1/2, -z+1/2'
  7  '-x+1/2, -y+1/2, z+1/2'
  8  '-y+1/2, x+1/2, -z+1/2'
loop_
 _atom_site_type_symbol
 _atom_site_label
 _atom_site_symmetry_multiplicity
 _atom_site_fract_x
 _atom_site_fract_y
 _atom_site_fract_z
 _atom_site_occupancy
  H  H0  8  -0.08509538  0.25308010  0.94412808  1
  H  H1  8  -0.03627229  0.24357520  1.35116812  1
  H  H2  8  -0.02581599  0.12334099  0.74859768  1
  H  H3  8  0.01948264  0.11082660  1.16382841  1
  H  H4  8  0.10034807  0.60485323  0.63297021  1
  H  H5  8  0.18162627  0.79682684  0.43279891  1
  C  C6  8  -0.02855959  0.23717067  1.07111192  1
  C  C7  8  0.00880749  0.15338735  0.95252100  1
  C  C8  8  0.04808100  0.27624733  0.92906085  1
  C  C9  8  0.08215823  0.20107925  0.82691188  1
  C  C10  8  0.10130874  0.33484855  0.84335003  1
  C  C11  8  0.15501948  0.21621338  0.68229309  1
  O  O12  8  0.16754737  0.29832721  0.69264629  1
