###############################################################################################
#
# CIF file generated by modified CIFWriter class 
# in pymatgen (v2025.03.10) https://pymatgen.org/
#
###############################################################################################
data_MACE-OFF23(L)_c729a9fe37bf35d
_symmetry_space_group_name_H-M   Pbca
_cell_length_a   8.87617601
_cell_length_b   10.75877734
_cell_length_c   9.66880935
_cell_angle_alpha   90.00000000
_cell_angle_beta   90.00000000
_cell_angle_gamma   90.00000000
_symmetry_Int_Tables_number   61
_chemical_formula_moiety   'C6 H6 O'
_chemical_formula_sum   'H48 C48 O8'
_cell_volume   923.34036625
_cell_formula_units_Z   8
loop_
 _symmetry_equiv_pos_site_id
 _symmetry_equiv_pos_as_xyz
  1  'x, y, z'
  2  '-x, -y, -z'
  3  '-x+1/2, -y, z+1/2'
  4  'x+1/2, y, -z+1/2'
  5  'x+1/2, -y+1/2, -z'
  6  '-x+1/2, y+1/2, z'
  7  '-x, y+1/2, -z+1/2'
  8  'x, -y+1/2, z+1/2'
loop_
 _atom_site_type_symbol
 _atom_site_label
 _atom_site_symmetry_multiplicity
 _atom_site_fract_x
 _atom_site_fract_y
 _atom_site_fract_z
 _atom_site_occupancy
  H  H0  8  -0.09208618  0.71802424  0.59625813  1
  H  H1  8  0.10870806  0.46923417  0.56080842  1
  H  H2  8  0.12138817  0.49377924  0.25096491  1
  H  H3  8  0.12827987  0.64617011  -0.24554969  1
  H  H4  8  0.24094904  0.11220528  0.26561268  1
  H  H5  8  0.24371987  -0.08977511  0.04354459  1
  C  C6  8  -0.00741080  0.72405049  0.05029136  1
  C  C7  8  0.09656557  0.64178012  0.09438124  1
  C  C8  8  0.11131292  0.64922504  -0.13578517  1
  C  C9  8  0.17175915  0.90589978  0.47651795  1
  C  C10  8  0.18681538  0.56216035  0.19417319  1
  C  C11  8  0.22815586  0.00891588  0.06235726  1
  O  O12  8  0.00093952  0.72979619  -0.09196630  1
