###############################################################################################
#
# CIF file generated by modified CIFWriter class 
# in pymatgen (v2025.03.10) https://pymatgen.org/
#
###############################################################################################
data_MACE-OFF23(L)_c7518caa5659aec
_symmetry_space_group_name_H-M   Pnna
_cell_length_a   10.17729221
_cell_length_b   10.83143431
_cell_length_c   8.98934044
_cell_angle_alpha   90.00000000
_cell_angle_beta   90.00000000
_cell_angle_gamma   90.00000000
_symmetry_Int_Tables_number   52
_chemical_formula_moiety   'C6 H6 O'
_chemical_formula_sum   'H48 C48 O8'
_cell_volume   990.93699472
_cell_formula_units_Z   8
loop_
 _symmetry_equiv_pos_site_id
 _symmetry_equiv_pos_as_xyz
  1  'x, y, z'
  2  '-x, -y, -z'
  3  '-x+1/2, -y, z'
  4  'x+1/2, y, -z'
  5  'x, -y+1/2, -z+1/2'
  6  '-x, y+1/2, z+1/2'
  7  '-x+1/2, y+1/2, -z+1/2'
  8  'x+1/2, -y+1/2, z+1/2'
loop_
 _atom_site_type_symbol
 _atom_site_label
 _atom_site_symmetry_multiplicity
 _atom_site_fract_x
 _atom_site_fract_y
 _atom_site_fract_z
 _atom_site_occupancy
  H  H0  8  -0.20920445  0.09836703  0.23464361  1
  H  H1  8  0.00894627  0.18635778  0.58369463  1
  H  H2  8  0.04060138  0.19367702  0.04661140  1
  H  H3  8  0.13955086  0.57840266  0.35532027  1
  H  H4  8  0.22331918  0.09223115  0.52310856  1
  H  H5  8  0.24730693  0.70640121  0.11267041  1
  C  C6  8  -0.10750639  0.08100999  0.25833666  1
  C  C7  8  -0.01615189  0.12718329  0.35108925  1
  C  C8  8  0.04357431  0.20742151  0.47214066  1
  C  C9  8  0.08248415  -0.01370751  0.20806636  1
  C  C10  8  0.10488282  0.06804508  0.31854246  1
  C  C11  8  0.17936726  0.14409136  0.43308800  1
  O  O12  8  -0.04842718  -0.00692621  0.17018948  1
