###############################################################################################
#
# CIF file generated by modified CIFWriter class 
# in pymatgen (v2025.03.10) https://pymatgen.org/
#
###############################################################################################
data_MACE-OFF23(L)_d1320ed87eed9f8
_symmetry_space_group_name_H-M   P4_12_12
_cell_length_a   8.56489487
_cell_length_b   8.56489487
_cell_length_c   13.49138808
_cell_angle_alpha   90.00000000
_cell_angle_beta   90.00000000
_cell_angle_gamma   90.00000000
_symmetry_Int_Tables_number   92
_chemical_formula_moiety   'C6 H6 O'
_chemical_formula_sum   'H48 C48 O8'
_cell_volume   989.69347754
_cell_formula_units_Z   8
loop_
 _symmetry_equiv_pos_site_id
 _symmetry_equiv_pos_as_xyz
  1  'x, y, z'
  2  '-y+1/2, x+1/2, z+1/4'
  3  '-x, -y, z+1/2'
  4  'y+1/2, -x+1/2, z+3/4'
  5  'x+1/2, -y+1/2, -z+3/4'
  6  '-y, -x, -z+1/2'
  7  '-x+1/2, y+1/2, -z+1/4'
  8  'y, x, -z'
loop_
 _atom_site_type_symbol
 _atom_site_label
 _atom_site_symmetry_multiplicity
 _atom_site_fract_x
 _atom_site_fract_y
 _atom_site_fract_z
 _atom_site_occupancy
  H  H0  8  -0.09390313  0.13323927  0.03862159  1
  H  H1  8  -0.08393751  0.13759707  0.16961464  1
  H  H2  8  -0.01025740  0.71295543  0.09075454  1
  H  H3  8  0.14074930  0.22946584  0.42279061  1
  H  H4  8  0.14958383  0.80393367  0.33985647  1
  H  H5  8  0.15083339  0.21484631  0.29148516  1
  C  C6  8  -0.08411858  0.20900297  0.10298969  1
  C  C7  8  0.01639793  0.59071185  0.09198857  1
  C  C8  8  0.04275609  0.33237135  0.09670265  1
  C  C9  8  0.04330379  0.43447651  0.34659632  1
  C  C10  8  0.10554039  0.68699052  0.34241155  1
  C  C11  8  0.15142216  0.29472935  0.35401212  1
  O  O12  8  -0.05406867  0.67198460  0.33880626  1
