###############################################################################################
#
# CIF file generated by modified CIFWriter class 
# in pymatgen (v2025.03.10) https://pymatgen.org/
#
###############################################################################################
data_MACE-OFF23(L)_d1df274ba3a44b5
_symmetry_space_group_name_H-M   P-42_1c
_cell_length_a   10.32387542
_cell_length_b   10.32387542
_cell_length_c   9.02361422
_cell_angle_alpha   90.00000000
_cell_angle_beta   90.00000000
_cell_angle_gamma   90.00000000
_symmetry_Int_Tables_number   114
_chemical_formula_moiety   'C6 H6 O'
_chemical_formula_sum   'H48 C48 O8'
_cell_volume   961.75849425
_cell_formula_units_Z   8
loop_
 _symmetry_equiv_pos_site_id
 _symmetry_equiv_pos_as_xyz
  1  'x, y, z'
  2  'y, -x, -z'
  3  '-x, -y, z'
  4  '-y, x, -z'
  5  'x+1/2, -y+1/2, -z+1/2'
  6  'y+1/2, x+1/2, z+1/2'
  7  '-x+1/2, y+1/2, -z+1/2'
  8  '-y+1/2, -x+1/2, z+1/2'
loop_
 _atom_site_type_symbol
 _atom_site_label
 _atom_site_symmetry_multiplicity
 _atom_site_fract_x
 _atom_site_fract_y
 _atom_site_fract_z
 _atom_site_occupancy
  H  H0  8  -0.06500278  0.81817242  0.88017720  1
  H  H1  8  -0.01531337  0.62520539  0.43554077  1
  H  H2  8  0.05413447  0.85113726  0.36845607  1
  H  H3  8  0.06455817  0.64199337  0.60753350  1
  H  H4  8  0.07229632  0.30927398  0.21254010  1
  H  H5  8  0.12591246  0.86456683  0.54504625  1
  C  C6  8  0.03716043  0.79823613  0.87789471  1
  C  C7  8  0.07270510  0.65918188  0.48896632  1
  C  C8  8  0.11447040  0.80248029  0.44938755  1
  C  C9  8  0.11604753  0.70083903  0.92020155  1
  C  C10  8  0.14228020  0.24055217  0.17309892  1
  C  C11  8  0.23863499  0.74517576  0.38731674  1
  O  O12  8  0.10457719  0.11286462  0.17989777  1
