###############################################################################################
#
# CIF file generated by modified CIFWriter class 
# in pymatgen (v2025.03.10) https://pymatgen.org/
#
###############################################################################################
data_MACE-OFF23(L)_d24f6fbaa11de29
_symmetry_space_group_name_H-M   P4/n
_cell_length_a   12.18019704
_cell_length_b   12.18019704
_cell_length_c   6.73910329
_cell_angle_alpha   90.00000000
_cell_angle_beta   90.00000000
_cell_angle_gamma   90.00000000
_symmetry_Int_Tables_number   85
_chemical_formula_moiety   'C6 H6 O'
_chemical_formula_sum   'H48 C48 O8'
_cell_volume   999.79449323
_cell_formula_units_Z   8
loop_
 _symmetry_equiv_pos_site_id
 _symmetry_equiv_pos_as_xyz
  1  'x, y, z'
  2  '-y+1/2, x+1/2, z'
  3  '-x, -y, z'
  4  'y+1/2, -x+1/2, z'
  5  '-x+1/2, -y+1/2, -z'
  6  'y, -x, -z'
  7  'x+1/2, y+1/2, -z'
  8  '-y, x, -z'
loop_
 _atom_site_type_symbol
 _atom_site_label
 _atom_site_symmetry_multiplicity
 _atom_site_fract_x
 _atom_site_fract_y
 _atom_site_fract_z
 _atom_site_occupancy
  H  H0  8  0.02157954  0.92088733  0.74908848  1
  H  H1  8  0.07107466  0.33876692  0.11860338  1
  H  H2  8  0.07118690  0.33875807  0.38200315  1
  H  H3  8  0.09400869  0.39677367  0.75041315  1
  H  H4  8  0.11417782  0.77027586  0.38129101  1
  H  H5  8  0.11429548  0.77015355  0.11844730  1
  C  C6  8  0.08202673  0.85697981  0.74956479  1
  C  C7  8  0.11545884  0.31279042  0.25023985  1
  C  C8  8  0.12513412  0.67905690  0.75008280  1
  C  C9  8  0.15067998  0.19260529  0.25028502  1
  C  C10  8  0.15743642  0.74218759  0.24997371  1
  C  C11  8  0.21977743  0.73611398  0.74999119  1
  O  O12  8  0.03933198  0.75233922  0.74977835  1
