###############################################################################################
#
# CIF file generated by modified CIFWriter class 
# in pymatgen (v2025.03.10) https://pymatgen.org/
#
###############################################################################################
data_MACE-OFF23(L)_dafba7036c181bf
_symmetry_space_group_name_H-M   C2/c
_cell_length_a   18.42284827
_cell_length_b   4.08301572
_cell_length_c   13.24436344
_cell_angle_alpha   90.00000000
_cell_angle_beta   80.28526505
_cell_angle_gamma   90.00000000
_symmetry_Int_Tables_number   15
_chemical_formula_moiety   'C6 H6 O'
_chemical_formula_sum   'H48 C48 O8'
_cell_volume   981.96519868
_cell_formula_units_Z   8
loop_
 _symmetry_equiv_pos_site_id
 _symmetry_equiv_pos_as_xyz
  1  'x, y, z'
  2  '-x, -y, -z'
  3  '-x, y, -z+1/2'
  4  'x, -y, z+1/2'
  5  'x+1/2, y+1/2, z'
  6  '-x+1/2, -y+1/2, -z'
  7  '-x+1/2, y+1/2, -z+1/2'
  8  'x+1/2, -y+1/2, z+1/2'
loop_
 _atom_site_type_symbol
 _atom_site_label
 _atom_site_symmetry_multiplicity
 _atom_site_fract_x
 _atom_site_fract_y
 _atom_site_fract_z
 _atom_site_occupancy
  H  H0  8  0.02946404  0.24599866  0.54244972  1
  H  H1  8  0.04732025  0.49203790  0.32469921  1
  H  H2  8  0.04991739  1.12799633  0.09921375  1
  H  H3  8  0.15916603  0.28243530  0.45267844  1
  H  H4  8  0.17926049  1.08935319  0.01140277  1
  H  H5  8  0.23887968  1.08085069  0.82428778  1
  C  C6  8  0.06910429  0.88008102  0.08095566  1
  C  C7  8  0.08938730  0.54166555  0.26014159  1
  C  C8  8  0.09340549  0.30649275  0.66892718  1
  C  C9  8  0.15149759  0.85447096  0.02396538  1
  C  C10  8  0.16717484  0.66759419  0.11731047  1
  C  C11  8  0.20538959  0.50066691  0.67844451  1
  O  O12  8  0.15797532  0.42219940  0.26672951  1
