###############################################################################################
#
# CIF file generated by modified CIFWriter class 
# in pymatgen (v2025.03.10) https://pymatgen.org/
#
###############################################################################################
data_MACE-OFF23(L)_df32809f0448dec
_symmetry_space_group_name_H-M   Aea2
_cell_length_a   14.96376773
_cell_length_b   8.68265246
_cell_length_c   7.27805832
_cell_angle_alpha   90.00000000
_cell_angle_beta   90.00000000
_cell_angle_gamma   90.00000000
_symmetry_Int_Tables_number   41
_chemical_formula_moiety   'C6 H6 O'
_chemical_formula_sum   'H48 C48 O8'
_cell_volume   945.60314385
_cell_formula_units_Z   8
loop_
 _symmetry_equiv_pos_site_id
 _symmetry_equiv_pos_as_xyz
  1  'x, y, z'
  2  '-x, -y, z'
  3  '-x+1/2, y+1/2, z'
  4  'x+1/2, -y+1/2, z'
  5  'x, y+1/2, z+1/2'
  6  '-x, -y+1/2, z+1/2'
  7  '-x+1/2, y, z+1/2'
  8  'x+1/2, -y, z+1/2'
loop_
 _atom_site_type_symbol
 _atom_site_label
 _atom_site_symmetry_multiplicity
 _atom_site_fract_x
 _atom_site_fract_y
 _atom_site_fract_z
 _atom_site_occupancy
  H  H0  8  -0.02333860  0.36128604  0.06505960  1
  H  H1  8  0.10935092  -0.00485761  0.29330464  1
  H  H2  8  0.13541632  0.57508258  0.41230996  1
  H  H3  8  0.20617469  0.54974646  0.22035900  1
  H  H4  8  0.20621297  0.34995834  0.56679020  1
  H  H5  8  0.21681771  0.33355476  0.88563877  1
  C  C6  8  0.03054176  0.31605991  0.14581047  1
  C  C7  8  0.10075647  0.37274868  0.23975550  1
  C  C8  8  0.10323564  0.11672789  0.26975238  1
  C  C9  8  0.14653630  0.24631053  0.31978086  1
  C  C10  8  0.16470794  0.99062107  0.82070066  1
  C  C11  8  0.21299740  0.85009616  0.91831237  1
  O  O12  8  0.03162631  0.15839735  0.16245612  1
