###############################################################################################
#
# CIF file generated by modified CIFWriter class 
# in pymatgen (v2025.03.10) https://pymatgen.org/
#
###############################################################################################
data_MACE-OFF23(L)_e0b628733faec49
_symmetry_space_group_name_H-M   I-4
_cell_length_a   10.15320874
_cell_length_b   10.15320874
_cell_length_c   9.30242854
_cell_angle_alpha   90.00000000
_cell_angle_beta   90.00000000
_cell_angle_gamma   90.00000000
_symmetry_Int_Tables_number   82
_chemical_formula_moiety   'C6 H6 O'
_chemical_formula_sum   'H48 C48 O8'
_cell_volume   958.96547586
_cell_formula_units_Z   8
loop_
 _symmetry_equiv_pos_site_id
 _symmetry_equiv_pos_as_xyz
  1  'x, y, z'
  2  'y, -x, -z'
  3  '-x, -y, z'
  4  '-y, x, -z'
  5  'x+1/2, y+1/2, z+1/2'
  6  'y+1/2, -x+1/2, -z+1/2'
  7  '-x+1/2, -y+1/2, z+1/2'
  8  '-y+1/2, x+1/2, -z+1/2'
loop_
 _atom_site_type_symbol
 _atom_site_label
 _atom_site_symmetry_multiplicity
 _atom_site_fract_x
 _atom_site_fract_y
 _atom_site_fract_z
 _atom_site_occupancy
  H  H0  8  -0.04990758  0.83237107  0.14684208  1
  H  H1  8  -0.00019502  0.34367220  0.38324185  1
  H  H2  8  0.03482150  0.33120554  0.82314452  1
  H  H3  8  0.05546104  0.35919631  0.56264585  1
  H  H4  8  0.08149608  0.11033293  0.38380461  1
  H  H5  8  0.13518807  0.85501742  0.44156279  1
  C  C6  8  0.05433934  0.81582739  0.13937238  1
  C  C7  8  0.08142300  0.32456392  0.45588166  1
  C  C8  8  0.11206148  0.26183182  0.84519088  1
  C  C9  8  0.13414359  0.71646279  0.09946005  1
  C  C10  8  0.13485292  0.17816091  0.45242538  1
  C  C11  8  0.23411404  0.73755231  0.60802001  1
  O  O12  8  0.07797591  0.13218856  0.82472511  1
