###############################################################################################
#
# CIF file generated by modified CIFWriter class 
# in pymatgen (v2025.03.10) https://pymatgen.org/
#
###############################################################################################
data_MACE-OFF23(L)_e2f75abce4f6882
_symmetry_space_group_name_H-M   Pbcn
_cell_length_a   8.77655909
_cell_length_b   11.98631250
_cell_length_c   9.08126816
_cell_angle_alpha   90.00000000
_cell_angle_beta   90.00000000
_cell_angle_gamma   90.00000000
_symmetry_Int_Tables_number   60
_chemical_formula_moiety   'C6 H6 O'
_chemical_formula_sum   'H48 C48 O8'
_cell_volume   955.33651489
_cell_formula_units_Z   8
loop_
 _symmetry_equiv_pos_site_id
 _symmetry_equiv_pos_as_xyz
  1  'x, y, z'
  2  '-x, -y, -z'
  3  '-x+1/2, -y+1/2, z+1/2'
  4  'x+1/2, y+1/2, -z+1/2'
  5  'x+1/2, -y+1/2, -z'
  6  '-x+1/2, y+1/2, z'
  7  '-x, y, -z+1/2'
  8  'x, -y, z+1/2'
loop_
 _atom_site_type_symbol
 _atom_site_label
 _atom_site_symmetry_multiplicity
 _atom_site_fract_x
 _atom_site_fract_y
 _atom_site_fract_z
 _atom_site_occupancy
  H  H0  8  -0.05087665  0.26811779  0.90688159  1
  H  H1  8  0.03319579  0.42689860  0.41991305  1
  H  H2  8  0.11568832  0.03193061  1.19177529  1
  H  H3  8  0.13190629  0.27989068  0.25552329  1
  H  H4  8  0.14663459  0.47188457  0.83048605  1
  H  H5  8  0.24138844  0.37960245  0.15942147  1
  C  C6  8  0.03440616  0.20793153  0.93660929  1
  C  C7  8  0.12398465  0.07876328  1.09130118  1
  C  C8  8  0.14565942  0.44402111  0.37550510  1
  C  C9  8  0.16352381  0.16646304  0.87782673  1
  C  C10  8  0.20767407  0.35054596  0.26797599  1
  C  C11  8  0.22019762  0.08408943  0.97578183  1
  O  O12  8  0.00921890  0.15447355  1.06846750  1
