###############################################################################################
#
# CIF file generated by modified CIFWriter class 
# in pymatgen (v2025.03.10) https://pymatgen.org/
#
###############################################################################################
data_MACE-OFF23(L)_e5bcde8bcf78987
_symmetry_space_group_name_H-M   Pbcn
_cell_length_a   17.92921675
_cell_length_b   5.29577098
_cell_length_c   9.52369449
_cell_angle_alpha   90.00000000
_cell_angle_beta   90.00000000
_cell_angle_gamma   90.00000000
_symmetry_Int_Tables_number   60
_chemical_formula_moiety   'C6 H6 O'
_chemical_formula_sum   'H48 C48 O8'
_cell_volume   904.26551314
_cell_formula_units_Z   8
loop_
 _symmetry_equiv_pos_site_id
 _symmetry_equiv_pos_as_xyz
  1  'x, y, z'
  2  '-x, -y, -z'
  3  '-x+1/2, -y+1/2, z+1/2'
  4  'x+1/2, y+1/2, -z+1/2'
  5  'x+1/2, -y+1/2, -z'
  6  '-x+1/2, y+1/2, z'
  7  '-x, y, -z+1/2'
  8  'x, -y, z+1/2'
loop_
 _atom_site_type_symbol
 _atom_site_label
 _atom_site_symmetry_multiplicity
 _atom_site_fract_x
 _atom_site_fract_y
 _atom_site_fract_z
 _atom_site_occupancy
  H  H0  8  0.05609743  0.25265128  -0.13318469  1
  H  H1  8  0.07032760  0.20719805  0.29663019  1
  H  H2  8  0.16246518  0.11985701  0.46074040  1
  H  H3  8  0.16748582  0.14593195  0.71918994  1
  H  H4  8  0.23777416  0.33460373  0.44814088  1
  H  H5  8  0.24419772  0.35453668  0.70720277  1
  C  C6  8  0.08047574  0.31051361  -0.03541068  1
  C  C7  8  0.08830853  0.28557156  0.19848591  1
  C  C8  8  0.13036735  0.48485314  0.00728827  1
  C  C9  8  0.13489547  0.46975135  0.15608725  1
  C  C10  8  0.18525773  0.29573226  0.50059059  1
  C  C11  8  0.18928678  0.31140577  0.66594648  1
  O  O12  8  0.05478108  0.18473048  0.08131039  1
