###############################################################################################
#
# CIF file generated by modified CIFWriter class 
# in pymatgen (v2025.03.10) https://pymatgen.org/
#
###############################################################################################
data_MACE-OFF23(L)_e9c536bfd8d46c5
_symmetry_space_group_name_H-M   C2/c
_cell_length_a   17.28520105
_cell_length_b   5.17369462
_cell_length_c   12.47575916
_cell_angle_alpha   90.00000000
_cell_angle_beta   125.35475352
_cell_angle_gamma   90.00000000
_symmetry_Int_Tables_number   15
_chemical_formula_moiety   'C6 H6 O'
_chemical_formula_sum   'H48 C48 O8'
_cell_volume   909.93723705
_cell_formula_units_Z   8
loop_
 _symmetry_equiv_pos_site_id
 _symmetry_equiv_pos_as_xyz
  1  'x, y, z'
  2  '-x, -y, -z'
  3  '-x, y, -z+1/2'
  4  'x, -y, z+1/2'
  5  'x+1/2, y+1/2, z'
  6  '-x+1/2, -y+1/2, -z'
  7  '-x+1/2, y+1/2, -z+1/2'
  8  'x+1/2, -y+1/2, z+1/2'
loop_
 _atom_site_type_symbol
 _atom_site_label
 _atom_site_symmetry_multiplicity
 _atom_site_fract_x
 _atom_site_fract_y
 _atom_site_fract_z
 _atom_site_occupancy
  H  H0  8  0.03068903  0.57663520  0.66455211  1
  H  H1  8  0.03112026  1.03348014  0.40772348  1
  H  H2  8  0.12906949  0.78619895  0.76119009  1
  H  H3  8  0.13693654  0.77442410  0.19311631  1
  H  H4  8  0.21044012  0.45019362  0.45752674  1
  H  H5  8  0.23681543  0.42805852  0.79102680  1
  C  C6  8  0.07211035  0.13579603  -0.04214794  1
  C  C7  8  0.09254314  0.72178100  0.56174946  1
  C  C8  8  0.09701921  0.64287958  0.68292699  1
  C  C9  8  0.15406523  0.51882958  0.57861628  1
  C  C10  8  0.16532347  0.58265098  0.20148082  1
  C  C11  8  0.16854412  0.45546625  -0.01597977  1
  O  O12  8  0.11792090  0.75552628  0.40822720  1
