###############################################################################################
#
# CIF file generated by modified CIFWriter class 
# in pymatgen (v2025.03.10) https://pymatgen.org/
#
###############################################################################################
data_MACE-OFF23(L)_f0a3a265408ff2
_symmetry_space_group_name_H-M   P4/n
_cell_length_a   12.05695092
_cell_length_b   12.05695092
_cell_length_c   6.66727678
_cell_angle_alpha   90.00000000
_cell_angle_beta   90.00000000
_cell_angle_gamma   90.00000000
_symmetry_Int_Tables_number   85
_chemical_formula_moiety   'C6 H6 O'
_chemical_formula_sum   'H48 C48 O8'
_cell_volume   969.22246123
_cell_formula_units_Z   8
loop_
 _symmetry_equiv_pos_site_id
 _symmetry_equiv_pos_as_xyz
  1  'x, y, z'
  2  '-y+1/2, x+1/2, z'
  3  '-x, -y, z'
  4  'y+1/2, -x+1/2, z'
  5  '-x+1/2, -y+1/2, -z'
  6  'y, -x, -z'
  7  'x+1/2, y+1/2, -z'
  8  '-y, x, -z'
loop_
 _atom_site_type_symbol
 _atom_site_label
 _atom_site_symmetry_multiplicity
 _atom_site_fract_x
 _atom_site_fract_y
 _atom_site_fract_z
 _atom_site_occupancy
  H  H0  8  -0.06248372  0.78709397  0.38266898  1
  H  H1  8  -0.06218832  0.78657226  0.11742811  1
  H  H2  8  -0.04874634  0.12135790  0.75122321  1
  H  H3  8  0.07733621  0.63638906  0.38422975  1
  H  H4  8  0.07759783  0.63598709  0.11844419  1
  H  H5  8  0.14682590  0.70174728  0.74861576  1
  C  C6  8  -0.01017843  0.78443306  0.25026303  1
  C  C7  8  0.03759888  0.14251430  0.75057390  1
  C  C8  8  0.07886060  0.68825117  0.25108352  1
  C  C9  8  0.08711558  0.86530963  0.24999124  1
  C  C10  8  0.16719130  0.77883134  0.25079522  1
  C  C11  8  0.17415677  0.26849091  0.74924683  1
  O  O12  8  0.06046598  0.25451175  0.75019425  1
