###############################################################################################
#
# CIF file generated by modified CIFWriter class 
# in pymatgen (v2025.03.10) https://pymatgen.org/
#
###############################################################################################
data_MACE-OFF23(L)_f627a401e162fa3
_symmetry_space_group_name_H-M   P4_12_12
_cell_length_a   9.04039342
_cell_length_b   9.04039342
_cell_length_c   11.30858817
_cell_angle_alpha   90.00000000
_cell_angle_beta   90.00000000
_cell_angle_gamma   90.00000000
_symmetry_Int_Tables_number   92
_chemical_formula_moiety   'C6 H6 O'
_chemical_formula_sum   'H48 C48 O8'
_cell_volume   924.23635903
_cell_formula_units_Z   8
loop_
 _symmetry_equiv_pos_site_id
 _symmetry_equiv_pos_as_xyz
  1  'x, y, z'
  2  '-y+1/2, x+1/2, z+1/4'
  3  '-x, -y, z+1/2'
  4  'y+1/2, -x+1/2, z+3/4'
  5  'x+1/2, -y+1/2, -z+3/4'
  6  '-y, -x, -z+1/2'
  7  '-x+1/2, y+1/2, -z+1/4'
  8  'y, x, -z'
loop_
 _atom_site_type_symbol
 _atom_site_label
 _atom_site_symmetry_multiplicity
 _atom_site_fract_x
 _atom_site_fract_y
 _atom_site_fract_z
 _atom_site_occupancy
  H  H0  8  -0.03558803  0.31352083  0.72744597  1
  H  H1  8  -0.00433818  0.92059792  0.62305907  1
  H  H2  8  0.00787259  0.16253683  0.63514333  1
  H  H3  8  0.01544815  0.57303328  0.82895028  1
  H  H4  8  0.11694120  0.33130969  0.48810631  1
  H  H5  8  0.13818927  0.32450270  0.12708596  1
  C  C6  8  0.04973594  0.26481087  0.67251025  1
  C  C7  8  0.08947171  0.86589785  0.58495155  1
  C  C8  8  0.11859923  0.37345836  0.57792302  1
  C  C9  8  0.14584783  0.76499260  0.89234145  1
  C  C10  8  0.18640951  0.71082561  0.45154438  1
  C  C11  8  0.20341345  0.25572508  0.72697026  1
  O  O12  8  0.05742248  0.77813325  0.48831533  1
