###############################################################################################
#
# CIF file generated by modified CIFWriter class 
# in pymatgen (v2025.03.10) https://pymatgen.org/
#
###############################################################################################
data_MACE-OFF23(L)_f961ea907d1ca8f
_symmetry_space_group_name_H-M   P4_2bc
_cell_length_a   13.04672714
_cell_length_b   13.04672714
_cell_length_c   6.73046221
_cell_angle_alpha   90.00000000
_cell_angle_beta   90.00000000
_cell_angle_gamma   90.00000000
_symmetry_Int_Tables_number   106
_chemical_formula_moiety   'C6 H6 O'
_chemical_formula_sum   'H48 C48 O8'
_cell_volume   1145.63968702
_cell_formula_units_Z   8
loop_
 _symmetry_equiv_pos_site_id
 _symmetry_equiv_pos_as_xyz
  1  'x, y, z'
  2  '-y, x, z+1/2'
  3  '-x, -y, z'
  4  'y, -x, z+1/2'
  5  '-x+1/2, y+1/2, z'
  6  'y+1/2, x+1/2, z+1/2'
  7  'x+1/2, -y+1/2, z'
  8  '-y+1/2, -x+1/2, z+1/2'
loop_
 _atom_site_type_symbol
 _atom_site_label
 _atom_site_symmetry_multiplicity
 _atom_site_fract_x
 _atom_site_fract_y
 _atom_site_fract_z
 _atom_site_occupancy
  H  H0  8  -0.05097990  0.12085664  0.55956458  1
  H  H1  8  -0.04918397  0.81074521  -0.08609284  1
  H  H2  8  -0.04505929  0.80427576  0.17713789  1
  H  H3  8  0.08045963  0.67363174  -0.10728898  1
  H  H4  8  0.08461400  0.66616879  0.15551929  1
  H  H5  8  0.16418827  0.32137359  0.02553823  1
  C  C6  8  0.00078806  0.80570776  0.04251905  1
  C  C7  8  0.02861505  0.14050927  0.54985214  1
  C  C8  8  0.08381864  0.71786549  0.02916354  1
  C  C9  8  0.08990602  0.88135674  0.04421489  1
  C  C10  8  0.15345846  0.25766493  0.53246869  1
  C  C11  8  0.16436166  0.80221755  0.03298261  1
  O  O12  8  0.04897186  0.24394045  0.54284138  1
