###############################################################################################
#
# CIF file generated by modified CIFWriter class 
# in pymatgen (v2025.03.10) https://pymatgen.org/
#
###############################################################################################
data_MACE-OFF23(L)_fa222bbdbf52dd7
_symmetry_space_group_name_H-M   Aea2
_cell_length_a   9.35403536
_cell_length_b   14.09403822
_cell_length_c   7.40307061
_cell_angle_alpha   90.00000000
_cell_angle_beta   90.00000000
_cell_angle_gamma   90.00000000
_symmetry_Int_Tables_number   41
_chemical_formula_moiety   'C6 H6 O'
_chemical_formula_sum   'H48 C48 O8'
_cell_volume   975.99219345
_cell_formula_units_Z   8
loop_
 _symmetry_equiv_pos_site_id
 _symmetry_equiv_pos_as_xyz
  1  'x, y, z'
  2  '-x, -y, z'
  3  '-x+1/2, y+1/2, z'
  4  'x+1/2, -y+1/2, z'
  5  'x, y+1/2, z+1/2'
  6  '-x, -y+1/2, z+1/2'
  7  '-x+1/2, y, z+1/2'
  8  'x+1/2, -y, z+1/2'
loop_
 _atom_site_type_symbol
 _atom_site_label
 _atom_site_symmetry_multiplicity
 _atom_site_fract_x
 _atom_site_fract_y
 _atom_site_fract_z
 _atom_site_occupancy
  H  H0  8  -0.07091497  0.09357593  0.24004433  1
  H  H1  8  0.03288073  0.13046764  0.82076480  1
  H  H2  8  0.04280744  0.08339026  0.59874511  1
  H  H3  8  0.19544605  0.00428621  0.92998349  1
  H  H4  8  0.20300441  0.30036568  0.05677507  1
  H  H5  8  0.20443035  -0.04397683  0.70975343  1
  C  C6  8  0.03477345  0.12029224  0.21619648  1
  C  C7  8  0.10377909  0.10181659  0.71851383  1
  C  C8  8  0.16960560  0.08861969  0.24129740  1
  C  C9  8  0.18369084  0.23305033  0.11987403  1
  C  C10  8  0.20810297  0.02132778  0.78787679  1
  C  C11  8  0.23627450  0.16036232  0.67998327  1
  O  O12  8  0.04199181  0.20947785  0.14278656  1
