
#######################################################################
#
#                 Cambridge Crystallographic Data Centre
#                                CCDC 
#
#######################################################################
#
# If this CIF has been generated from an entry in the Cambridge 
# Structural Database, then it will include bibliographic, chemical, 
# crystal, experimental, refinement or atomic coordinate data resulting 
# from the CCDC's data processing and validation procedures.
#
#######################################################################

data_NACJAF
_chemical_name_common            tricyano-1,4-dithiino[c]-isothiazole
_chemical_formula_moiety         'C8 N4 S3'
_chemical_name_systematic        
'[1,4]dithiino[2,3-c][1,2]thiazole-3,5,6-tricarbonitrile'
_symmetry_cell_setting           monoclinic
_symmetry_space_group_name_H-M   'P 21/n'
_symmetry_Int_Tables_number      14
_space_group_name_Hall           '-P 2yn'
loop_
_symmetry_equiv_pos_site_id
_symmetry_equiv_pos_as_xyz
1 x,y,z
2 1/2-x,1/2+y,1/2-z
3 -x,-y,-z
4 1/2+x,1/2-y,1/2+z
_cell_length_a                   11.947(2)
_cell_length_b                   6.6960(10)
_cell_length_c                   12.598(3)
_cell_angle_alpha                90
_cell_angle_beta                 108.60(3)
_cell_angle_gamma                90
_cell_volume                     955.164
_exptl_crystal_colour            yellow
_exptl_crystal_description       block
_cell_formula_units_Z            4
loop_
_atom_site_label
_atom_site_type_symbol
_atom_site_fract_x
_atom_site_fract_y
_atom_site_fract_z
_atom_site_U_iso_or_equiv
_atom_site_thermal_displace_type
S1 S 0.48530(10) 0.14023(17) 0.36792(10) 0.0355 Uani
S2 S 0.58898(11) 0.60826(17) 0.36041(10) 0.0371 Uani
S3 S 0.84223(11) 0.14325(17) 0.41469(10) 0.0365 Uani
N1 N 0.2146(4) 0.2201(6) 0.1303(3) 0.0415 Uani
N2 N 0.3446(4) 0.7617(6) 0.1140(4) 0.0449 Uani
N3 N 0.9289(4) 0.6793(6) 0.3834(3) 0.0400 Uani
N4 N 0.7102(3) 0.0515(6) 0.3994(3) 0.0366 Uani
C1 C 0.4151(4) 0.3254(6) 0.2696(4) 0.0282 Uani
C2 C 0.4577(4) 0.5112(7) 0.2668(4) 0.0306 Uani
C3 C 0.3039(5) 0.2657(6) 0.1902(4) 0.0309 Uani
C4 C 0.3932(4) 0.6498(7) 0.1802(4) 0.0336 Uani
C5 C 0.6330(4) 0.1962(7) 0.3818(3) 0.0278 Uani
C6 C 0.6751(4) 0.3921(6) 0.3775(3) 0.0285 Uani
C7 C 0.7939(4) 0.3863(6) 0.3930(4) 0.0291 Uani
C8 C 0.8692(4) 0.5505(7) 0.3903(4) 0.0317 Uani
loop_
_atom_site_aniso_label
_atom_site_aniso_U_11
_atom_site_aniso_U_22
_atom_site_aniso_U_33
_atom_site_aniso_U_23
_atom_site_aniso_U_13
_atom_site_aniso_U_12
S1 0.0324(8) 0.0332(7) 0.0388(7) 0.0057(6) 0.0082(6) -0.0077(6)
S2 0.0353(8) 0.0263(7) 0.0476(8) -0.0069(6) 0.0101(6) -0.0020(6)
S3 0.0326(8) 0.0296(7) 0.0439(8) -0.0024(6) 0.0076(6) -0.0008(6)
N1 0.041(3) 0.049(3) 0.035(3) 0.001(2) 0.013(2) -0.009(2)
N2 0.055(3) 0.036(2) 0.042(3) 0.006(2) 0.013(2) 0.007(2)
N3 0.038(3) 0.041(3) 0.042(3) 0.000(2) 0.014(2) -0.010(2)
N4 0.036(3) 0.032(2) 0.037(3) -0.0039(19) 0.0049(19) -0.004(2)
C1 0.024(3) 0.035(3) 0.027(3) 0.003(2) 0.010(2) 0.004(2)
C2 0.032(3) 0.029(3) 0.034(3) 0.000(2) 0.015(2) 0.002(2)
C3 0.041(3) 0.026(3) 0.031(3) 0.000(2) 0.019(3) 0.000(2)
C4 0.036(3) 0.029(3) 0.040(3) -0.008(3) 0.018(2) -0.006(2)
C5 0.029(3) 0.028(3) 0.022(3) 0.003(2) 0.002(2) -0.001(2)
C6 0.034(3) 0.024(2) 0.025(3) 0.002(2) 0.006(2) 0.000(2)
C7 0.033(3) 0.022(2) 0.034(3) -0.003(2) 0.013(2) -0.002(2)
C8 0.033(3) 0.036(3) 0.022(3) 0.000(2) 0.003(2) 0.001(3)
loop_
_geom_bond_atom_site_label_1
_geom_bond_atom_site_label_2
_geom_bond_site_symmetry_1
_geom_bond_site_symmetry_2
S1 C1 1_555 1_555
S2 C2 1_555 1_555
S3 N4 1_555 1_555
N1 C3 1_555 1_555
N2 C4 1_555 1_555
N3 C8 1_555 1_555
N4 C5 1_555 1_555
C1 C2 1_555 1_555
C2 C4 1_555 1_555
C3 C1 1_555 1_555
C5 S1 1_555 1_555
C6 S2 1_555 1_555
C7 S3 1_555 1_555
C8 C7 1_555 1_555
C5 C6 1_555 1_555
C6 C7 1_555 1_555

#END
