###############################################################################################
#
# CIF file generated by modified CIFWriter class 
# in pymatgen (v2025.03.10) https://pymatgen.org/
#
###############################################################################################
data_PBE+MBD_tight_13e32ef3bb08e8
_symmetry_space_group_name_H-M   P-1
_cell_length_a   15.36949296
_cell_length_b   15.92149189
_cell_length_c   8.34983765
_cell_angle_alpha   86.54525636
_cell_angle_beta   51.99650736
_cell_angle_gamma   77.89373153
_symmetry_Int_Tables_number   2
_chemical_formula_moiety   'C6 H6 N12 O12'
_chemical_formula_sum   'H24 C24 N48 O48'
_cell_volume   1567.91717275
_cell_formula_units_Z   4
loop_
 _symmetry_equiv_pos_site_id
 _symmetry_equiv_pos_as_xyz
  1  'x, y, z'
  2  '-x, -y, -z'
  3  'x+1/2, y+1/2, z'
  4  '-x+1/2, -y+1/2, -z'
loop_
 _atom_site_type_symbol
 _atom_site_label
 _atom_site_symmetry_multiplicity
 _atom_site_fract_x
 _atom_site_fract_y
 _atom_site_fract_z
 _atom_site_occupancy
  H  H0  4  0.01722501  0.58719655  0.72884659  1
  H  H1  4  0.05682142  0.98652326  0.83570891  1
  H  H2  4  0.10491756  1.12591404  0.75542478  1
  H  H3  4  0.12011897  0.54427111  0.37510671  1
  H  H4  4  0.21948498  0.44394674  0.85832994  1
  H  H5  4  0.23299568  0.91425946  0.22301771  1
  C  C6  4  0.10524927  0.55610160  0.65854849  1
  C  C7  4  0.14038725  0.98283479  0.68976705  1
  C  C8  4  0.17143401  1.07471150  0.63582362  1
  C  C9  4  0.17401976  0.52781787  0.42132866  1
  C  C10  4  0.22560246  0.46699245  0.72623034  1
  C  C11  4  0.24399208  0.94075036  0.32598842  1
  N  N12  4  0.04538215  0.92314256  0.58466335  1
  N  N13  4  0.05787160  0.41898394  0.81199025  1
  N  N14  4  0.11447160  0.48475262  0.76868163  1
  N  N15  4  0.13901468  0.69815710  0.68997125  1
  N  N16  4  0.14213000  0.94649951  0.53456549  1
  N  N17  4  0.15303739  1.18022261  0.42079533  1
  N  N18  4  0.15827198  0.60924943  0.69468444  1
  N  N19  4  0.18987679  1.09359723  0.44846926  1
  N  N20  4  0.19510095  0.90178761  0.88814657  1
  N  N21  4  0.22474181  0.43553153  0.38335656  1
  N  N22  4  0.22888826  0.93142844  0.69661409  1
  N  N23  4  0.23480869  0.38780676  0.22761652  1
  O  O24  4  -0.03655393  0.93184279  0.76596887  1
  O  O25  4  -0.01608821  0.43316048  0.79096461  1
  O  O26  4  0.05188862  0.89743759  0.44173332  1
  O  O27  4  0.06929338  0.73062263  0.66435457  1
  O  O28  4  0.08444521  0.35543026  0.87555644  1
  O  O29  4  0.09709845  0.89378601  1.00803768  1
  O  O30  4  0.10368212  1.23291983  0.56745984  1
  O  O31  4  0.16074574  0.41486034  0.20983151  1
  O  O32  4  0.17218204  1.19062738  0.25754704  1
  O  O33  4  0.18852594  1.17547880  0.85996086  1
  O  O34  4  0.19339905  0.73433590  0.71495607  1
  O  O35  4  0.23132981  0.61637235  0.09107608  1
