###############################################################################################
#
# CIF file generated by modified CIFWriter class 
# in pymatgen (v2025.03.10) https://pymatgen.org/
#
###############################################################################################
data_PBE+MBD_tight_1555cb8db560763
_symmetry_space_group_name_H-M   Pca2_1
_cell_length_a   23.22493372
_cell_length_b   7.71619412
_cell_length_c   12.81335011
_cell_angle_alpha   90.00000000
_cell_angle_beta   90.00000000
_cell_angle_gamma   90.00000000
_symmetry_Int_Tables_number   29
_chemical_formula_moiety   'C6 H6 N12 O12'
_chemical_formula_sum   'H24 C24 N48 O48'
_cell_volume   2296.25608727
_cell_formula_units_Z   4
loop_
 _symmetry_equiv_pos_site_id
 _symmetry_equiv_pos_as_xyz
  1  'x, y, z'
  2  '-x, -y, z+1/2'
  3  '-x+1/2, y, z+1/2'
  4  'x+1/2, -y, z'
loop_
 _atom_site_type_symbol
 _atom_site_label
 _atom_site_symmetry_multiplicity
 _atom_site_fract_x
 _atom_site_fract_y
 _atom_site_fract_z
 _atom_site_occupancy
  H  H0  4  -0.04354843  0.72240383  0.04628370  1
  H  H1  4  -0.03372475  0.39818940  0.29759958  1
  H  H2  4  0.00065434  0.58922841  0.43422359  1
  H  H3  4  0.01238305  1.04618315  0.28508905  1
  H  H4  4  0.05245248  0.58763138  0.04223602  1
  H  H5  4  0.10662190  0.91109358  0.27941039  1
  C  C6  4  -0.02281118  0.71624979  0.12276814  1
  C  C7  4  -0.01483814  0.51642510  0.26567779  1
  C  C8  4  0.00746816  0.64335269  0.35665020  1
  C  C9  4  0.00990905  0.90908549  0.26403405  1
  C  C10  4  0.03916655  0.62944847  0.12010396  1
  C  C11  4  0.07178729  0.82072456  0.26028412  1
  N  N12  4  -0.11019565  0.63905362  0.22625270  1
  N  N13  4  -0.05378126  0.60112304  0.19393459  1
  N  N14  4  -0.05102813  1.02616264  0.12299302  1
  N  N15  4  -0.03901810  0.90070209  0.43589092  1
  N  N16  4  -0.02125482  0.81100281  0.34458596  1
  N  N17  4  -0.01663095  0.89041266  0.16332640  1
  N  N18  4  0.03033673  0.47947118  0.19037195  1
  N  N19  4  0.06768173  0.68246553  0.33843491  1
  N  N20  4  0.07665386  0.37651208  0.22023099  1
  N  N21  4  0.08065668  0.75143753  0.15767211  1
  N  N22  4  0.10793224  0.67496771  0.42367658  1
  N  N23  4  0.13515009  0.77246588  0.10479458  1
  O  O24  4  -0.13661829  0.74103942  0.17120799  1
  O  O25  4  -0.12648149  0.56351555  0.30493296  1
  O  O26  4  -0.07077246  1.00314920  0.03552080  1
  O  O27  4  -0.05566430  1.15527322  0.17745770  1
  O  O28  4  -0.04858002  0.81133695  0.51295260  1
  O  O29  4  -0.04562425  1.05732081  0.42728227  1
  O  O30  4  0.06835912  0.28310922  0.29728905  1
  O  O31  4  0.09351592  0.58207029  0.49648704  1
  O  O32  4  0.11982768  0.38488744  0.16642923  1
  O  O33  4  0.13933477  0.69927807  0.02112392  1
  O  O34  4  0.15260544  0.75366379  0.41118519  1
  O  O35  4  0.16970043  0.86538743  0.14903075  1
