###############################################################################################
#
# CIF file generated by modified CIFWriter class 
# in pymatgen (v2025.03.10) https://pymatgen.org/
#
###############################################################################################
data_PBE+MBD_tight_1684ceb09245d8d
_symmetry_space_group_name_H-M   P222
_cell_length_a   15.37040003
_cell_length_b   14.86910258
_cell_length_c   7.64317941
_cell_angle_alpha   90.00000000
_cell_angle_beta   90.00000000
_cell_angle_gamma   90.00000000
_symmetry_Int_Tables_number   16
_chemical_formula_moiety   'C6 H6 N12 O12'
_chemical_formula_sum   'H24 C24 N48 O48'
_cell_volume   1746.80321374
_cell_formula_units_Z   4
loop_
 _symmetry_equiv_pos_site_id
 _symmetry_equiv_pos_as_xyz
  1  'x, y, z'
  2  'x, -y, -z'
  3  '-x, -y, z'
  4  '-x, y, -z'
loop_
 _atom_site_type_symbol
 _atom_site_label
 _atom_site_symmetry_multiplicity
 _atom_site_fract_x
 _atom_site_fract_y
 _atom_site_fract_z
 _atom_site_occupancy
  H  H0  4  0.10485478  0.31913992  0.45042557  1
  H  H1  4  0.13917034  0.32826526  0.76215976  1
  H  H2  4  0.17692857  0.07227694  0.61005955  1
  H  H3  4  0.33033728  0.07040617  0.54685935  1
  H  H4  4  0.36912714  0.31918714  0.33368602  1
  H  H5  4  0.40301090  0.32496098  0.64581575  1
  C  C6  4  0.16525775  0.28454249  0.48420424  1
  C  C7  4  0.18720292  0.29026293  0.68685682  1
  C  C8  4  0.20301992  0.14007476  0.59087410  1
  C  C9  4  0.30482767  0.13880580  0.54785313  1
  C  C10  4  0.32151976  0.28390305  0.41452624  1
  C  C11  4  0.34282964  0.28891411  0.61685900  1
  N  N12  4  0.08097713  0.15329836  0.37676086  1
  N  N13  4  0.13554522  0.16591651  0.88320984  1
  N  N14  4  0.15902867  0.18875196  0.44952150  1
  N  N15  4  0.18845380  0.19649111  0.74180974  1
  N  N16  4  0.23182501  0.41419339  0.33913895  1
  N  N17  4  0.23554197  0.32069445  0.37765481  1
  N  N18  4  0.27159894  0.33300643  0.70365189  1
  N  N19  4  0.29106976  0.37371598  0.87173498  1
  N  N20  4  0.30797342  0.14803084  0.22436581  1
  N  N21  4  0.32435595  0.18706039  0.38632915  1
  N  N22  4  0.35231708  0.19401115  0.67237870  1
  N  N23  4  0.43958300  0.16504886  0.70981428  1
  O  O24  4  0.02824918  0.20836474  0.32199947  1
  O  O25  4  0.07657304  0.07171330  0.37035641  1
  O  O26  4  0.11139118  0.22447149  0.98423751  1
  O  O27  4  0.12431097  0.08507327  0.89201747  1
  O  O28  4  0.15927328  0.44761942  0.33312910  1
  O  O29  4  0.22796425  0.39464689  0.95859646  1
  O  O30  4  0.29061413  0.06731805  0.22702227  1
  O  O31  4  0.30146307  0.45139899  0.31099831  1
  O  O32  4  0.31461327  0.19709106  0.09651861  1
  O  O33  4  0.36772216  0.38532706  0.90420793  1
  O  O34  4  0.45343403  0.08444659  0.70169675  1
  O  O35  4  0.49058420  0.22412752  0.75432011  1
