###############################################################################################
#
# CIF file generated by modified CIFWriter class 
# in pymatgen (v2025.03.10) https://pymatgen.org/
#
###############################################################################################
data_PBE+MBD_tight_17ba7d713c5990f
_symmetry_space_group_name_H-M   P2_1/c
_cell_length_a   12.22335482
_cell_length_b   9.00957986
_cell_length_c   15.56031107
_cell_angle_alpha   90.00000000
_cell_angle_beta   75.74068062
_cell_angle_gamma   90.00000000
_symmetry_Int_Tables_number   14
_chemical_formula_moiety   'C6 H6 N12 O12'
_chemical_formula_sum   'H24 C24 N48 O48'
_cell_volume   1660.81990777
_cell_formula_units_Z   4
loop_
 _symmetry_equiv_pos_site_id
 _symmetry_equiv_pos_as_xyz
  1  'x, y, z'
  2  '-x, -y, -z'
  3  '-x, y+1/2, -z+1/2'
  4  'x, -y+1/2, z+1/2'
loop_
 _atom_site_type_symbol
 _atom_site_label
 _atom_site_symmetry_multiplicity
 _atom_site_fract_x
 _atom_site_fract_y
 _atom_site_fract_z
 _atom_site_occupancy
  H  H0  4  0.08208180  0.68726441  1.01338295  1
  H  H1  4  0.24531662  1.01664707  0.28715609  1
  H  H2  4  0.24825148  0.92699413  0.53928472  1
  H  H3  4  0.27341288  1.03473605  0.87772183  1
  H  H4  4  0.35644706  0.68441159  0.70799849  1
  H  H5  4  0.44166904  0.57769826  0.40546659  1
  C  C6  4  0.15573383  0.79317805  0.45836448  1
  C  C7  4  0.25316053  0.92448268  0.33084153  1
  C  C8  4  0.26620938  0.63248943  0.97610098  1
  C  C9  4  0.26917966  0.58662146  0.37912768  1
  C  C10  4  0.32667424  0.79034104  0.27844439  1
  C  C11  4  0.37935064  0.65986624  0.39715148  1
  N  N12  4  0.04546769  0.54530425  0.88155828  1
  N  N13  4  0.12256595  0.53980116  0.51777835  1
  N  N14  4  0.14342086  0.86455996  0.37674988  1
  N  N15  4  0.16970828  0.63506750  0.44502264  1
  N  N16  4  0.19503344  0.60360889  0.24353549  1
  N  N17  4  0.26800067  0.84996154  0.79354256  1
  N  N18  4  0.30434915  0.52943150  0.90187604  1
  N  N19  4  0.30598477  1.12655473  0.42183244  1
  N  N20  4  0.34629073  0.75006201  0.97655806  1
  N  N21  4  0.41923776  0.74950867  0.31690292  1
  N  N22  4  0.42149703  0.73877849  1.03299019  1
  N  N23  4  0.48529433  0.33732681  0.19644884  1
  O  O24  4  -0.03977235  0.58531432  0.93615606  1
  O  O25  4  0.04828882  0.59366861  0.57691009  1
  O  O26  4  0.05549111  1.05681611  0.32898513  1
  O  O27  4  0.14822506  0.48471311  0.26381481  1
  O  O28  4  0.15895290  0.41313180  0.51245174  1
  O  O29  4  0.18725738  0.81213247  0.68272680  1
  O  O30  4  0.30903919  1.21001364  0.35913489  1
  O  O31  4  0.31048202  1.15780704  0.49674256  1
  O  O32  4  0.41662169  0.87535514  0.57629817  1
  O  O33  4  0.41792236  0.30663665  0.15259204  1
  O  O34  4  0.47741624  0.06450841  0.75273681  1
  O  O35  4  0.47961168  0.65183408  0.53575387  1
