###############################################################################################
#
# CIF file generated by modified CIFWriter class 
# in pymatgen (v2025.03.10) https://pymatgen.org/
#
###############################################################################################
data_PBE+MBD_tight_1894deae459f9a1
_symmetry_space_group_name_H-M   P2/c
_cell_length_a   7.94318794
_cell_length_b   13.74348073
_cell_length_c   15.14761057
_cell_angle_alpha   84.32047781
_cell_angle_beta   90.00000000
_cell_angle_gamma   90.00000000
_symmetry_Int_Tables_number   13
_chemical_formula_moiety   'C6 H6 N12 O12'
_chemical_formula_sum   'H24 C24 N48 O48'
_cell_volume   1645.50235071
_cell_formula_units_Z   4
loop_
 _symmetry_equiv_pos_site_id
 _symmetry_equiv_pos_as_xyz
  1  'x, y, z'
  2  '-x, -y, -z'
  3  'x, -y, -z+1/2'
  4  '-x, y, z+1/2'
loop_
 _atom_site_type_symbol
 _atom_site_label
 _atom_site_symmetry_multiplicity
 _atom_site_fract_x
 _atom_site_fract_y
 _atom_site_fract_z
 _atom_site_occupancy
  H  H0  4  0.02030756  0.29274079  0.01195265  1
  H  H1  4  0.10133088  0.12594477  0.01367674  1
  H  H2  4  0.36271563  0.39959091  0.17522746  1
  H  H3  4  0.39106977  0.13885611  0.52653311  1
  H  H4  4  0.46658235  0.42976575  0.02533389  1
  H  H5  4  0.48771650  0.10957719  0.67801156  1
  C  C6  4  0.14933288  0.28206754  0.03577936  1
  C  C7  4  0.20391564  0.16954455  0.03711066  1
  C  C8  4  0.34816974  0.33635855  0.13722255  1
  C  C9  4  0.41605863  0.35608266  0.03833394  1
  C  C10  4  0.43591933  0.16430624  0.13908772  1
  C  C11  4  0.49897671  0.18432164  0.54025761  1
  N  N12  4  0.04005807  0.35016344  0.17266569  1
  N  N13  4  0.15251090  0.11405563  0.19549222  1
  N  N14  4  0.17266036  0.31228432  0.12393770  1
  N  N15  4  0.20485727  0.43045227  -0.06688124  1
  N  N16  4  0.26496352  0.12938803  0.12432259  1
  N  N17  4  0.26868949  0.34298232  -0.01770544  1
  N  N18  4  0.32492783  0.31379462  0.46179433  1
  N  N19  4  0.35542726  0.16106440  -0.01501836  1
  N  N20  4  0.36980409  0.07624385  -0.06163079  1
  N  N21  4  0.43493636  0.25336529  0.18235186  1
  N  N22  4  0.44891140  0.26623917  0.75057980  1
  N  N23  4  0.45333744  0.28609320  0.52540450  1
  O  O24  4  -0.10190759  0.33470890  0.14602064  1
  O  O25  4  0.00307701  0.11188340  0.17564735  1
  O  O26  4  0.05374701  0.43351020  -0.08056939  1
  O  O27  4  0.08222120  0.39019561  0.23744424  1
  O  O28  4  0.21596352  0.10215783  0.26952426  1
  O  O29  4  0.23090834  0.24811887  0.44346485  1
  O  O30  4  0.23999428  0.03299012  -0.07610968  1
  O  O31  4  0.31154257  0.49027056  -0.09324032  1
  O  O32  4  0.31769378  0.40018448  0.43492352  1
  O  O33  4  0.35672691  0.19679513  0.77273691  1
  O  O34  4  0.45368532  0.34508384  0.78163067  1
  O  O35  4  0.48794469  0.05754162  0.41363404  1
