###############################################################################################
#
# CIF file generated by modified CIFWriter class 
# in pymatgen (v2025.03.10) https://pymatgen.org/
#
###############################################################################################
data_PBE+MBD_tight_18daf237894ca0b
_symmetry_space_group_name_H-M   P2_12_12_1
_cell_length_a   8.04182567
_cell_length_b   13.62037295
_cell_length_c   14.94001399
_cell_angle_alpha   90.00000000
_cell_angle_beta   90.00000000
_cell_angle_gamma   90.00000000
_symmetry_Int_Tables_number   19
_chemical_formula_moiety   'C6 H6 N12 O12'
_chemical_formula_sum   'H24 C24 N48 O48'
_cell_volume   1636.41954412
_cell_formula_units_Z   4
loop_
 _symmetry_equiv_pos_site_id
 _symmetry_equiv_pos_as_xyz
  1  'x, y, z'
  2  '-x+1/2, -y, z+1/2'
  3  'x+1/2, -y+1/2, -z'
  4  '-x, y+1/2, -z+1/2'
loop_
 _atom_site_type_symbol
 _atom_site_label
 _atom_site_symmetry_multiplicity
 _atom_site_fract_x
 _atom_site_fract_y
 _atom_site_fract_z
 _atom_site_occupancy
  H  H0  4  -0.21972345  -0.14452153  0.36283921  1
  H  H1  4  0.08147505  0.18318275  0.42335211  1
  H  H2  4  0.16335407  -0.09342084  0.53226418  1
  H  H3  4  0.18947241  0.12891870  0.28081907  1
  H  H4  4  0.21299611  1.14575644  0.89140280  1
  H  H5  4  0.23011154  0.48818893  0.70010801  1
  C  C6  4  -0.14756518  0.00952291  0.33146006  1
  C  C7  4  -0.11318881  -0.09625309  0.37353381  1
  C  C8  4  0.05432488  0.10582696  0.41030102  1
  C  C9  4  0.10589731  -0.05826125  0.47414588  1
  C  C10  4  0.12813109  0.06981585  0.31771137  1
  C  C11  4  0.18487181  -0.09374622  0.38245708  1
  N  N12  4  -0.23601051  0.10136931  0.46680294  1
  N  N13  4  -0.12370304  0.08858879  0.39642086  1
  N  N14  4  -0.11852191  -0.17052834  0.52272605  1
  N  N15  4  -0.07215216  -0.08660133  0.46840447  1
  N  N16  4  -0.06007638  0.07416154  0.18428258  1
  N  N17  4  -0.01629878  0.03218195  0.26844895  1
  N  N18  4  0.04078082  -0.13945280  0.34078784  1
  N  N19  4  0.05015462  -0.19225443  0.26221723  1
  N  N20  4  0.09326955  1.00531956  0.80029085  1
  N  N21  4  0.12365531  0.04618423  0.48071258  1
  N  N22  4  0.18252298  0.09074957  0.56050230  1
  N  N23  4  0.24370738  -0.00901099  0.33380283  1
  O  O24  4  -0.24255707  -0.21506321  0.49814901  1
  O  O25  4  -0.19640133  0.05151865  0.15532204  1
  O  O26  4  -0.18589655  0.14882357  0.53092294  1
  O  O27  4  -0.08155848  -0.20205592  0.22069691  1
  O  O28  4  -0.03557768  -0.18526410  0.58933691  1
  O  O29  4  0.00895318  1.07938345  0.81120820  1
  O  O30  4  0.04674573  0.12427770  0.14790356  1
  O  O31  4  0.05032436  0.92841810  0.76512827  1
  O  O32  4  0.12531867  0.43462343  0.54391508  1
  O  O33  4  0.18628618  -0.22672925  0.24327315  1
  O  O34  4  0.18952308  0.17986154  0.56044671  1
  O  O35  4  0.22451342  0.03421382  0.62009167  1
