###############################################################################################
#
# CIF file generated by modified CIFWriter class 
# in pymatgen (v2025.03.10) https://pymatgen.org/
#
###############################################################################################
data_PBE+MBD_tight_18ecd32dbe30a44
_symmetry_space_group_name_H-M   P2_1/c
_cell_length_a   13.85281287
_cell_length_b   9.20514048
_cell_length_c   13.24403704
_cell_angle_alpha   90.00000000
_cell_angle_beta   92.84598757
_cell_angle_gamma   90.00000000
_symmetry_Int_Tables_number   14
_chemical_formula_moiety   'C6 H6 N12 O12'
_chemical_formula_sum   'H24 C24 N48 O48'
_cell_volume   1686.75803854
_cell_formula_units_Z   4
loop_
 _symmetry_equiv_pos_site_id
 _symmetry_equiv_pos_as_xyz
  1  'x, y, z'
  2  '-x, -y, -z'
  3  '-x, y+1/2, -z+1/2'
  4  'x, -y+1/2, z+1/2'
loop_
 _atom_site_type_symbol
 _atom_site_label
 _atom_site_symmetry_multiplicity
 _atom_site_fract_x
 _atom_site_fract_y
 _atom_site_fract_z
 _atom_site_occupancy
  H  H0  4  0.10233128  1.03826791  0.72639065  1
  H  H1  4  0.10872385  0.29620928  0.36772573  1
  H  H2  4  0.17133200  0.69504488  0.92040347  1
  H  H3  4  0.17733992  0.63973284  0.56262677  1
  H  H4  4  0.38971104  1.10559595  0.80722579  1
  H  H5  4  0.42545257  0.90744046  0.91919211  1
  C  C6  4  0.15688723  1.00675539  0.78479397  1
  C  C7  4  0.16076928  0.38513775  0.37789675  1
  C  C8  4  0.19715574  0.69696487  0.40029680  1
  C  C9  4  0.20062586  0.91119561  0.99344529  1
  C  C10  4  0.32317504  1.05835126  0.83374445  1
  C  C11  4  0.34754736  0.57556588  0.40880823  1
  N  N12  4  0.06526922  0.77553555  0.76877516  1
  N  N13  4  0.08382555  1.09830974  1.04183880  1
  N  N14  4  0.13530441  0.86277114  0.82021195  1
  N  N15  4  0.13981410  1.03398023  0.96762300  1
  N  N16  4  0.25575534  1.01953474  0.75046315  1
  N  N17  4  0.26162314  1.16700303  0.87859465  1
  N  N18  4  0.28584349  0.93555810  0.67078922  1
  N  N19  4  0.29743523  0.70440503  0.36979102  1
  N  N20  4  0.29953960  0.25343179  0.46203306  1
  N  N21  4  0.30265531  0.54721128  0.50440521  1
  N  N22  4  0.34737549  0.65667154  0.88486340  1
  N  N23  4  0.35495601  0.57285527  0.59755490  1
  O  O24  4  0.02020265  0.66813849  0.19727822  1
  O  O25  4  0.03374448  1.20186856  1.01453543  1
  O  O26  4  0.05480121  0.65292272  0.80225711  1
  O  O27  4  0.08738798  1.04006857  1.12513942  1
  O  O28  4  0.22067727  0.61629980  0.11536263  1
  O  O29  4  0.23980029  0.19666931  0.51489259  1
  O  O30  4  0.29501698  0.94907838  0.38826654  1
  O  O31  4  0.30642910  0.58624480  0.67151975  1
  O  O32  4  0.37303167  0.92392398  0.66247172  1
  O  O33  4  0.38752990  1.25295951  0.97182171  1
  O  O34  4  0.43499574  0.66224381  0.88630065  1
  O  O35  4  0.44302850  0.57150421  0.59497581  1
