###############################################################################################
#
# CIF file generated by modified CIFWriter class 
# in pymatgen (v2025.03.10) https://pymatgen.org/
#
###############################################################################################
data_PBE+MBD_tight_1a3445915a1dbc7
_symmetry_space_group_name_H-M   P2_1
_cell_length_a   9.40770853
_cell_length_b   14.95456315
_cell_length_c   12.76238169
_cell_angle_alpha   90.00000000
_cell_angle_beta   90.00000000
_cell_angle_gamma   89.99802687
_symmetry_Int_Tables_number   4
_chemical_formula_moiety   'C6 H6 N12 O12'
_chemical_formula_sum   'H24 C24 N48 O48'
_cell_volume   1795.51614018
_cell_formula_units_Z   4
loop_
 _symmetry_equiv_pos_site_id
 _symmetry_equiv_pos_as_xyz
  1  'x, y, z'
  2  '-x, -y, z+1/2'
  3  'x+1/2, y+1/2, z'
  4  '-x+1/2, -y+1/2, z+1/2'
loop_
 _atom_site_type_symbol
 _atom_site_label
 _atom_site_symmetry_multiplicity
 _atom_site_fract_x
 _atom_site_fract_y
 _atom_site_fract_z
 _atom_site_occupancy
  H  H0  4  -0.13086125  1.00994574  1.01850789  1
  H  H1  4  -0.12954019  0.74175423  0.93484879  1
  H  H2  4  0.00096943  0.86791142  0.66771612  1
  H  H3  4  0.00148832  1.02336917  0.71974422  1
  H  H4  4  0.13045494  0.74146352  0.93486593  1
  H  H5  4  0.13278500  1.00963027  1.01885617  1
  C  C6  4  -0.08397094  0.96419260  0.96105404  1
  C  C7  4  -0.08359424  0.80583012  0.91115506  1
  C  C8  4  0.00107375  0.87505103  0.75285063  1
  C  C9  4  0.00121310  0.97833051  0.78697580  1
  C  C10  4  0.08496049  0.80571032  0.91134031  1
  C  C11  4  0.08579094  0.96400653  0.96128195  1
  N  N12  4  -0.19091962  1.08008577  0.84452127  1
  N  N13  4  -0.13214669  0.87487605  0.98159481  1
  N  N14  4  -0.12115795  0.99480073  0.85460488  1
  N  N15  4  -0.11394511  0.82508382  0.79991585  1
  N  N16  4  0.11600937  0.82507775  0.80012920  1
  N  N17  4  0.12347969  0.99446006  0.85481918  1
  N  N18  4  0.13330566  0.87455611  0.98207498  1
  N  N19  4  0.19399261  1.07948748  0.84456911  1
  N  N20  4  0.23335916  0.63803270  0.53709619  1
  N  N21  4  0.23423787  0.36254452  1.03632402  1
  N  N22  4  0.24518657  0.65737893  0.26659908  1
  N  N23  4  0.24745396  0.34192192  0.76558204  1
  O  O24  4  -0.17962841  1.11704091  0.75978630  1
  O  O25  4  0.15045469  0.68535980  0.32308678  1
  O  O26  4  0.15247879  0.31316630  0.82129710  1
  O  O27  4  0.17446438  0.56994901  0.56592873  1
  O  O28  4  0.17520007  0.43072907  1.06468539  1
  O  O29  4  0.18307193  1.11637548  0.75976981  1
  O  O30  4  0.19916998  0.71541259  0.55204770  1
  O  O31  4  0.19994822  0.28521928  1.05154645  1
  O  O32  4  0.23422748  0.61726120  0.18303966  1
  O  O33  4  0.23642880  0.39665529  0.42041315  1
  O  O34  4  0.23690009  0.38225582  0.68212131  1
  O  O35  4  0.23964104  0.60406898  0.92038964  1
