###############################################################################################
#
# CIF file generated by modified CIFWriter class 
# in pymatgen (v2025.03.10) https://pymatgen.org/
#
###############################################################################################
data_PBE+MBD_tight_1a4c82f13c0b5f4
_symmetry_space_group_name_H-M   P4_2
_cell_length_a   12.55251485
_cell_length_b   12.55251485
_cell_length_c   10.31964219
_cell_angle_alpha   90.00000000
_cell_angle_beta   90.00000000
_cell_angle_gamma   90.00000000
_symmetry_Int_Tables_number   77
_chemical_formula_moiety   'C6 H6 N12 O12'
_chemical_formula_sum   'H24 C24 N48 O48'
_cell_volume   1626.02091381
_cell_formula_units_Z   4
loop_
 _symmetry_equiv_pos_site_id
 _symmetry_equiv_pos_as_xyz
  1  'x, y, z'
  2  '-y, x, z+1/2'
  3  '-x, -y, z'
  4  'y, -x, z+1/2'
loop_
 _atom_site_type_symbol
 _atom_site_label
 _atom_site_symmetry_multiplicity
 _atom_site_fract_x
 _atom_site_fract_y
 _atom_site_fract_z
 _atom_site_occupancy
  H  H0  4  0.03401683  0.64830325  0.96642670  1
  H  H1  4  0.08924435  0.11887668  0.24157577  1
  H  H2  4  0.14199568  0.38459115  0.45611937  1
  H  H3  4  0.14903066  0.53619475  0.83369076  1
  H  H4  4  0.20178082  0.23867147  0.11467223  1
  H  H5  4  0.29043350  0.33356531  0.58606752  1
  C  C6  4  0.10395152  0.69064683  0.93005723  1
  C  C7  4  0.15354175  0.15419110  0.29870338  1
  C  C8  4  0.17979735  0.61700046  0.84627525  1
  C  C9  4  0.18295732  0.31613710  0.41381075  1
  C  C10  4  0.22742065  0.23199969  0.21566929  1
  C  C11  4  0.28228345  0.71619779  1.00084897  1
  N  N12  4  -0.02731756  0.77351061  0.78658630  1
  N  N13  4  0.01095135  0.21991879  0.44627714  1
  N  N14  4  0.06888486  0.78322195  0.85670188  1
  N  N15  4  0.11381637  0.22460370  0.39794522  1
  N  N16  4  0.13582499  0.71379323  1.16420205  1
  N  N17  4  0.16250512  0.41969708  0.21263383  1
  N  N18  4  0.17127492  0.72682568  1.03563128  1
  N  N19  4  0.19153745  0.66559393  0.72030132  1
  N  N20  4  0.20712051  0.59752125  0.60957750  1
  N  N21  4  0.21791268  0.33629955  0.28121290  1
  N  N22  4  0.27690092  0.61746060  0.92636231  1
  N  N23  4  0.37257331  0.57498779  0.87687790  1
  O  O24  4  -0.08272528  0.69594370  0.81158515  1
  O  O25  4  -0.04736004  0.84567033  0.71056971  1
  O  O26  4  -0.03902632  0.13834233  0.42275922  1
  O  O27  4  -0.01823483  0.29672774  0.51064370  1
  O  O28  4  0.03825986  0.71127755  1.17657628  1
  O  O29  4  0.12349599  0.48963893  0.27898992  1
  O  O30  4  0.16562058  0.41453861  0.09414172  1
  O  O31  4  0.16818018  0.50852917  0.61950946  1
  O  O32  4  0.20311075  0.71096252  1.24849942  1
  O  O33  4  0.25266883  0.63664125  0.51764438  1
  O  O34  4  0.36317201  0.51040546  0.78888218  1
  O  O35  4  0.39341993  0.45373565  0.42986746  1
