###############################################################################################
#
# CIF file generated by modified CIFWriter class 
# in pymatgen (v2025.03.10) https://pymatgen.org/
#
###############################################################################################
data_PBE+MBD_tight_1b0fb933b4c368e
_symmetry_space_group_name_H-M   Pca2_1
_cell_length_a   15.34597792
_cell_length_b   8.14607926
_cell_length_c   12.97213700
_cell_angle_alpha   90.00000000
_cell_angle_beta   90.00000000
_cell_angle_gamma   90.00000000
_symmetry_Int_Tables_number   29
_chemical_formula_moiety   'C6 H6 N12 O12'
_chemical_formula_sum   'H24 C24 N48 O48'
_cell_volume   1621.64104147
_cell_formula_units_Z   4
loop_
 _symmetry_equiv_pos_site_id
 _symmetry_equiv_pos_as_xyz
  1  'x, y, z'
  2  '-x, -y, z+1/2'
  3  '-x+1/2, y, z+1/2'
  4  'x+1/2, -y, z'
loop_
 _atom_site_type_symbol
 _atom_site_label
 _atom_site_symmetry_multiplicity
 _atom_site_fract_x
 _atom_site_fract_y
 _atom_site_fract_z
 _atom_site_occupancy
  H  H0  4  -0.02092252  0.92549003  0.16914701  1
  H  H1  4  -0.02007773  0.64887715  0.24171787  1
  H  H2  4  0.16421306  0.66464629  0.01398976  1
  H  H3  4  0.20413506  0.72876736  0.60831817  1
  H  H4  4  0.20731605  1.03165560  0.33080466  1
  H  H5  4  0.20844337  0.75678031  0.40034261  1
  C  C6  4  0.04486173  0.87848672  0.18183829  1
  C  C7  4  0.04535126  0.69841423  0.22882973  1
  C  C8  4  0.14976660  0.71507914  0.09012190  1
  C  C9  4  0.18010186  0.94185913  0.27700639  1
  C  C10  4  0.18055966  0.76154796  0.32299578  1
  C  C11  4  0.23715354  0.75697933  0.15257044  1
  N  N12  4  0.04379285  1.08045027  0.32278051  1
  N  N13  4  0.06255752  0.61000435  0.41275854  1
  N  N14  4  0.09123382  0.85429762  0.08470458  1
  N  N15  4  0.09174703  0.60800797  0.14736976  1
  N  N16  4  0.09199132  0.70392424  0.32577696  1
  N  N17  4  0.09247233  0.99091267  0.24851711  1
  N  N18  4  0.10919522  0.98313021  0.01796444  1
  N  N19  4  0.11456038  0.44420133  0.16075373  1
  N  N20  4  0.19182577  0.57990642  0.78487918  1
  N  N21  4  0.19283462  1.03039833  0.67260352  1
  N  N22  4  0.23305462  0.92871215  0.18431927  1
  N  N23  4  0.23427906  0.66895185  0.24988332  1
  O  O24  4  -0.03419840  1.09509640  0.30555185  1
  O  O25  4  -0.01048650  0.55378919  0.40684570  1
  O  O26  4  0.05982675  1.10046702  0.02099355  1
  O  O27  4  0.07218236  0.36986348  0.22575707  1
  O  O28  4  0.08469404  1.13750985  0.39513540  1
  O  O29  4  0.11329016  0.60208205  0.48530972  1
  O  O30  4  0.13756701  0.54527596  0.71977566  1
  O  O31  4  0.14168227  0.98897070  0.60474043  1
  O  O32  4  0.17250144  0.96282843  -0.03925799  1
  O  O33  4  0.17319137  0.39157060  0.10576700  1
  O  O34  4  0.18895101  1.15174976  0.72761420  1
  O  O35  4  0.19350283  0.53992219  0.87580820  1
