###############################################################################################
#
# CIF file generated by modified CIFWriter class 
# in pymatgen (v2025.03.10) https://pymatgen.org/
#
###############################################################################################
data_PBE+MBD_tight_1c404cd67e34315
_symmetry_space_group_name_H-M   P2_1/c
_cell_length_a   9.42913605
_cell_length_b   11.27339197
_cell_length_c   14.92485841
_cell_angle_alpha   90.00000000
_cell_angle_beta   92.75172605
_cell_angle_gamma   90.00000000
_symmetry_Int_Tables_number   14
_chemical_formula_moiety   'C6 H6 N12 O12'
_chemical_formula_sum   'H24 C24 N48 O48'
_cell_volume   1584.65845703
_cell_formula_units_Z   4
loop_
 _symmetry_equiv_pos_site_id
 _symmetry_equiv_pos_as_xyz
  1  'x, y, z'
  2  '-x, -y, -z'
  3  '-x, y+1/2, -z+1/2'
  4  'x, -y+1/2, z+1/2'
loop_
 _atom_site_type_symbol
 _atom_site_label
 _atom_site_symmetry_multiplicity
 _atom_site_fract_x
 _atom_site_fract_y
 _atom_site_fract_z
 _atom_site_occupancy
  H  H0  4  0.05795476  0.67745923  0.16123261  1
  H  H1  4  0.05870117  0.59063485  0.42808138  1
  H  H2  4  0.19672059  0.75606465  0.99601731  1
  H  H3  4  0.25256305  0.53829661  0.19100815  1
  H  H4  4  0.29763078  0.55410180  0.78545632  1
  H  H5  4  0.49164365  0.69251057  0.81516816  1
  C  C6  4  0.11878103  0.69601696  0.22389772  1
  C  C7  4  0.12130521  0.63539001  0.37846831  1
  C  C8  4  0.21488830  0.76114561  0.92459994  1
  C  C9  4  0.24501526  0.89450678  0.74336372  1
  C  C10  4  0.26085958  0.85549990  0.29728141  1
  C  C11  4  0.38750317  0.73510064  0.81694022  1
  N  N12  4  -0.07672248  0.74254156  0.81932679  1
  N  N13  4  0.03292831  0.82226053  0.80245753  1
  N  N14  4  0.13438338  0.60657996  0.65158403  1
  N  N15  4  0.16462408  0.54436993  0.93092544  1
  N  N16  4  0.17715087  0.68574710  0.72029706  1
  N  N17  4  0.18054683  0.64997618  0.87893679  1
  N  N18  4  0.20552071  0.55264182  0.32872037  1
  N  N19  4  0.30085486  1.02272386  0.87600196  1
  N  N20  4  0.36426646  0.71916561  0.40746457  1
  N  N21  4  0.37633889  0.82826372  0.75082327  1
  N  N22  4  0.46392070  0.74281137  0.97960963  1
  N  N23  4  0.49838640  0.12171561  0.28196723  1
  O  O24  4  -0.12198313  0.68450101  0.75452949  1
  O  O25  4  -0.11626221  0.74020139  0.89604728  1
  O  O26  4  0.05750377  0.64739239  0.59032271  1
  O  O27  4  0.15119634  0.94177784  0.51137181  1
  O  O28  4  0.15866763  1.04783020  0.38820503  1
  O  O29  4  0.18000936  0.99450399  0.15825331  1
  O  O30  4  0.27862510  1.03888639  0.95516037  1
  O  O31  4  0.38665590  0.33342866  0.75546632  1
  O  O32  4  0.39455900  1.06595977  0.83223567  1
  O  O33  4  0.42123091  0.20756555  0.54238976  1
  O  O34  4  0.42198798  0.75681026  1.05502835  1
  O  O35  4  0.48454082  0.54001569  0.16429974  1
