###############################################################################################
#
# CIF file generated by modified CIFWriter class 
# in pymatgen (v2025.03.10) https://pymatgen.org/
#
###############################################################################################
data_PBE+MBD_tight_1cd1cbce0a5a57
_symmetry_space_group_name_H-M   Pmc2_1
_cell_length_a   20.78988911
_cell_length_b   7.67352728
_cell_length_c   12.93440408
_cell_angle_alpha   90.00000000
_cell_angle_beta   90.00000000
_cell_angle_gamma   90.00000000
_symmetry_Int_Tables_number   26
_chemical_formula_moiety   'C6 H6 N12 O12'
_chemical_formula_sum   'H24 C24 N48 O48'
_cell_volume   2063.44852299
_cell_formula_units_Z   4
loop_
 _symmetry_equiv_pos_site_id
 _symmetry_equiv_pos_as_xyz
  1  'x, y, z'
  2  '-x, -y, z+1/2'
  3  '-x, y, z'
  4  'x, -y, z+1/2'
loop_
 _atom_site_type_symbol
 _atom_site_label
 _atom_site_symmetry_multiplicity
 _atom_site_fract_x
 _atom_site_fract_y
 _atom_site_fract_z
 _atom_site_occupancy
  H  H0  4  0.16121109  0.49430425  0.24330187  1
  H  H1  4  0.19121742  0.15951744  0.47698837  1
  H  H2  4  0.25097705  0.38839238  0.83826064  1
  H  H3  4  0.26301338  -0.04932045  0.40346173  1
  H  H4  4  0.28512363  0.13462237  0.10751909  1
  H  H5  4  0.37375345  0.23948724  0.21404339  1
  C  C6  4  0.19658886  0.39432586  0.26368455  1
  C  C7  4  0.21379779  0.21012667  0.40684374  1
  C  C8  4  0.25501012  0.47105224  0.32709774  1
  C  C9  4  0.26186741  0.06967398  0.35732775  1
  C  C10  4  0.26926033  0.17916843  0.18362004  1
  C  C11  4  0.32685472  0.25185966  0.25185289  1
  N  N12  4  0.10291270  0.31376009  0.37495107  1
  N  N13  4  0.16652567  0.26230098  0.33079351  1
  N  N14  4  0.18733335  0.33215876  0.07717784  1
  N  N15  4  0.19472061  -0.06588013  0.22021956  1
  N  N16  4  0.22180490  0.31546369  0.17108830  1
  N  N17  4  0.24682345  0.37632785  0.42533205  1
  N  N18  4  0.24722958  0.03481822  0.24847117  1
  N  N19  4  0.29215835  0.39078915  0.50326559  1
  N  N20  4  0.31411133  0.43177414  0.27457176  1
  N  N21  4  0.32468676  0.14767535  0.34721204  1
  N  N22  4  0.36314713  0.43913097  0.76344330  1
  N  N23  4  0.38030541  0.04835670  0.37891547  1
  O  O24  4  0.07362374  0.42208593  0.32563930  1
  O  O25  4  0.08685006  0.23343408  0.45131379  1
  O  O26  4  0.14139924  0.43134536  0.07792340  1
  O  O27  4  0.17460023  -0.04630529  0.13180724  1
  O  O28  4  0.17469043  -0.16815536  0.28581173  1
  O  O29  4  0.20877235  0.25180884  0.00300635  1
  O  O30  4  0.29060794  0.27748162  0.57076112  1
  O  O31  4  0.32791704  0.48184775  0.99994433  1
  O  O32  4  0.34726277  0.29089544  0.78611105  1
  O  O33  4  0.37119381  -0.05050929  0.45133261  1
  O  O34  4  0.41446544  0.48997835  0.72987188  1
  O  O35  4  0.43014148  0.08191292  0.33429419  1
