###############################################################################################
#
# CIF file generated by modified CIFWriter class 
# in pymatgen (v2025.03.10) https://pymatgen.org/
#
###############################################################################################
data_PBE+MBD_tight_1d9af6582ec9f2d
_symmetry_space_group_name_H-M   P2_1/c
_cell_length_a   7.68399677
_cell_length_b   12.52720636
_cell_length_c   17.61061343
_cell_angle_alpha   90.00000000
_cell_angle_beta   73.04282185
_cell_angle_gamma   90.00000000
_symmetry_Int_Tables_number   14
_chemical_formula_moiety   'C6 H6 N12 O12'
_chemical_formula_sum   'H24 C24 N48 O48'
_cell_volume   1621.47892233
_cell_formula_units_Z   4
loop_
 _symmetry_equiv_pos_site_id
 _symmetry_equiv_pos_as_xyz
  1  'x, y, z'
  2  '-x, -y, -z'
  3  '-x, y+1/2, -z+1/2'
  4  'x, -y+1/2, z+1/2'
loop_
 _atom_site_type_symbol
 _atom_site_label
 _atom_site_symmetry_multiplicity
 _atom_site_fract_x
 _atom_site_fract_y
 _atom_site_fract_z
 _atom_site_occupancy
  H  H0  4  -0.11539029  0.22933372  0.76497802  1
  H  H1  4  -0.02412853  0.15698445  0.63265346  1
  H  H2  4  0.03477887  0.47818040  0.61372824  1
  H  H3  4  0.34638577  -0.00054992  0.10614689  1
  H  H4  4  0.42414110  0.26893541  0.75757820  1
  H  H5  4  0.48347397  0.80644419  0.37734609  1
  C  C6  4  0.01029582  0.23452996  0.22814331  1
  C  C7  4  0.07011917  0.28177741  0.14113373  1
  C  C8  4  0.08738917  0.40682786  0.63515210  1
  C  C9  4  0.29719211  0.42216392  0.63033885  1
  C  C10  4  0.33076929  0.21158337  0.22317090  1
  C  C11  4  0.39071135  0.25997815  0.13573759  1
  N  N12  4  -0.20371950  0.08392971  0.24128879  1
  N  N13  4  -0.08814596  0.31496570  0.55833325  1
  N  N14  4  -0.01704551  0.38047016  0.71741055  1
  N  N15  4  0.06772769  0.18836035  0.08997238  1
  N  N16  4  0.10908335  0.28506486  0.34454494  1
  N  N17  4  0.15256063  0.25123783  0.26408596  1
  N  N18  4  0.24808270  0.32653756  0.12485683  1
  N  N19  4  0.27912575  0.02228438  0.26712199  1
  N  N20  4  0.28455444  0.43368102  0.09670087  1
  N  N21  4  0.33206773  0.09662797  0.20609660  1
  N  N22  4  0.41371046  0.33724244  0.58720782  1
  N  N23  4  0.45042508  0.17087686  0.00454840  1
  O  O24  4  -0.31691899  0.35511890  0.78206977  1
  O  O25  4  -0.22899805  0.50695869  0.72137605  1
  O  O26  4  -0.15314529  0.22872470  0.54942454  1
  O  O27  4  -0.13245577  0.40311175  0.54127320  1
  O  O28  4  -0.05003994  0.19014271  0.87533605  1
  O  O29  4  0.15383186  0.01684070  0.58873168  1
  O  O30  4  0.23465518  0.28924093  0.37346412  1
  O  O31  4  0.25016617  0.56882834  0.74687380  1
  O  O32  4  0.27142422  0.05335717  0.33360613  1
  O  O33  4  0.41933312  0.09024284  -0.02898481  1
  O  O34  4  0.43996905  0.03559974  0.58587074  1
  O  O35  4  0.48646622  0.74433372  1.02493028  1
