###############################################################################################
#
# CIF file generated by modified CIFWriter class 
# in pymatgen (v2025.03.10) https://pymatgen.org/
#
###############################################################################################
data_PBE+MBD_tight_1f3bae72040258b
_symmetry_space_group_name_H-M   Pna2_1
_cell_length_a   16.12684409
_cell_length_b   8.39730295
_cell_length_c   11.65905128
_cell_angle_alpha   90.00000000
_cell_angle_beta   90.00000000
_cell_angle_gamma   90.00000000
_symmetry_Int_Tables_number   33
_chemical_formula_moiety   'C6 H6 N12 O12'
_chemical_formula_sum   'H24 C24 N48 O48'
_cell_volume   1578.89199028
_cell_formula_units_Z   4
loop_
 _symmetry_equiv_pos_site_id
 _symmetry_equiv_pos_as_xyz
  1  'x, y, z'
  2  '-x, -y, z+1/2'
  3  '-x+1/2, y+1/2, z+1/2'
  4  'x+1/2, -y+1/2, z'
loop_
 _atom_site_type_symbol
 _atom_site_label
 _atom_site_symmetry_multiplicity
 _atom_site_fract_x
 _atom_site_fract_y
 _atom_site_fract_z
 _atom_site_occupancy
  H  H0  4  -0.01169217  0.38714945  0.52717653  1
  H  H1  4  0.08594763  0.01800968  0.72135035  1
  H  H2  4  0.10096267  0.62815934  0.78442245  1
  H  H3  4  0.12620281  0.45752938  0.46270097  1
  H  H4  4  0.15841999  0.41811143  0.89775394  1
  H  H5  4  0.22401159  0.08613799  0.65603860  1
  C  C6  4  0.03553001  0.36505252  0.59251002  1
  C  C7  4  0.09367065  0.14581344  0.70771814  1
  C  C8  4  0.10423583  0.51702018  0.73590814  1
  C  C9  4  0.12607834  0.41000141  0.54989629  1
  C  C10  4  0.14246510  0.37541345  0.81206133  1
  C  C11  4  0.18396709  0.19043035  0.66482039  1
  N  N12  4  -0.04655399  0.56737908  0.70439880  1
  N  N13  4  -0.01705359  0.08969787  0.56546672  1
  N  N14  4  0.01477983  0.24031538  0.87598594  1
  N  N15  4  0.02377982  0.46671525  0.69291758  1
  N  N16  4  0.03276855  0.19996643  0.62611520  1
  N  N17  4  0.08879747  0.23610186  0.81562543  1
  N  N18  4  0.15397902  0.53234141  0.63186089  1
  N  N19  4  0.17194422  0.68794488  0.58885327  1
  N  N20  4  0.17642565  0.26857883  0.55455190  1
  N  N21  4  0.21181168  0.87478106  0.24861241  1
  N  N22  4  0.21210617  0.29694349  0.75706536  1
  N  N23  4  0.24202272  0.25066956  0.47193680  1
  O  O24  4  -0.10461496  0.53959012  0.64049887  1
  O  O25  4  -0.05739782  0.14358627  0.48569390  1
  O  O26  4  -0.04265326  0.66575807  0.78178637  1
  O  O27  4  -0.03250502  0.12908146  0.86086991  1
  O  O28  4  -0.01484828  -0.04781072  0.59935546  1
  O  O29  4  0.00527706  0.35535938  0.94072793  1
  O  O30  4  0.16048443  0.80895504  0.18723906  1
  O  O31  4  0.16551435  0.79750515  0.65741459  1
  O  O32  4  0.19647304  0.69405111  0.48997581  1
  O  O33  4  0.20384282  0.99749283  0.30374650  1
  O  O34  4  0.21186885  0.63794910  -0.01279269  1
  O  O35  4  0.24271332  0.34661197  0.39353371  1
