###############################################################################################
#
# CIF file generated by modified CIFWriter class 
# in pymatgen (v2025.03.10) https://pymatgen.org/
#
###############################################################################################
data_PBE+MBD_tight_2139b5335f470d7
_symmetry_space_group_name_H-M   P-1
_cell_length_a   15.24092353
_cell_length_b   9.44062051
_cell_length_c   12.06989213
_cell_angle_alpha   97.32116536
_cell_angle_beta   88.09736043
_cell_angle_gamma   102.71897035
_symmetry_Int_Tables_number   2
_chemical_formula_moiety   'C6 H6 N12 O12'
_chemical_formula_sum   'H24 C24 N48 O48'
_cell_volume   1680.21234247
_cell_formula_units_Z   4
loop_
 _symmetry_equiv_pos_site_id
 _symmetry_equiv_pos_as_xyz
  1  'x, y, z'
  2  '-x, -y, -z'
  3  'x+1/2, y+1/2, z'
  4  '-x+1/2, -y+1/2, -z'
loop_
 _atom_site_type_symbol
 _atom_site_label
 _atom_site_symmetry_multiplicity
 _atom_site_fract_x
 _atom_site_fract_y
 _atom_site_fract_z
 _atom_site_occupancy
  H  H0  4  -0.00227339  0.87582691  0.68151525  1
  H  H1  4  -0.00094332  0.89928653  0.88066618  1
  H  H2  4  0.24004119  0.38966625  0.04664231  1
  H  H3  4  0.24508253  0.80470781  0.60137844  1
  H  H4  4  0.24632838  0.43485768  0.39420953  1
  H  H5  4  0.24731488  0.64717352  0.05167721  1
  C  C6  4  0.06646931  0.89750520  0.71321877  1
  C  C7  4  0.06764320  0.91426346  0.84754114  1
  C  C8  4  0.21122194  0.84904867  0.67454751  1
  C  C9  4  0.21541270  0.87635828  0.87959546  1
  C  C10  4  0.21695955  1.01925789  0.67717539  1
  C  C11  4  0.22056426  1.04626524  0.88270142  1
  N  N12  4  0.08020044  0.69020108  0.56949759  1
  N  N13  4  0.08100857  0.67144240  0.88850631  1
  N  N14  4  0.09053089  1.11115665  0.60271674  1
  N  N15  4  0.09755568  1.18193797  0.88980852  1
  N  N16  4  0.11422356  0.78304507  0.67076122  1
  N  N17  4  0.11794981  0.81985931  0.89039607  1
  N  N18  4  0.12280887  1.02874268  0.67682564  1
  N  N19  4  0.12489398  1.05172972  0.89438585  1
  N  N20  4  0.17781720  0.27127503  0.22005926  1
  N  N21  4  0.20134925  0.79306957  0.23132467  1
  N  N22  4  0.23935390  0.40699760  0.22027275  1
  N  N23  4  0.24790846  0.67544505  0.22582434  1
  O  O24  4  -0.00041104  0.66726395  0.55573731  1
  O  O25  4  0.00062901  0.63169125  0.86656197  1
  O  O26  4  0.00887651  1.09602822  0.60084813  1
  O  O27  4  0.01642721  1.17190583  0.88132247  1
  O  O28  4  0.13239606  0.59590278  0.91072701  1
  O  O29  4  0.13580231  0.63809247  0.51203895  1
  O  O30  4  0.14807210  1.19210074  0.55375647  1
  O  O31  4  0.15045100  0.20815989  0.12865979  1
  O  O32  4  0.15536017  0.23233915  0.31143206  1
  O  O33  4  0.15735202  1.29345563  0.89720905  1
  O  O34  4  0.17423408  0.81558839  0.14283773  1
  O  O35  4  0.19132368  0.85462586  0.32453482  1
