###############################################################################################
#
# CIF file generated by modified CIFWriter class 
# in pymatgen (v2025.03.10) https://pymatgen.org/
#
###############################################################################################
data_PBE+MBD_tight_21b7c68408cbd09
_symmetry_space_group_name_H-M   P2_1/c
_cell_length_a   12.39616954
_cell_length_b   7.98308003
_cell_length_c   16.46214916
_cell_angle_alpha   90.00000000
_cell_angle_beta   82.76022724
_cell_angle_gamma   90.00000000
_symmetry_Int_Tables_number   14
_chemical_formula_moiety   'C6 H6 N12 O12'
_chemical_formula_sum   'H24 C24 N48 O48'
_cell_volume   1616.09995083
_cell_formula_units_Z   4
loop_
 _symmetry_equiv_pos_site_id
 _symmetry_equiv_pos_as_xyz
  1  'x, y, z'
  2  '-x, -y, -z'
  3  '-x, y+1/2, -z+1/2'
  4  'x, -y+1/2, z+1/2'
loop_
 _atom_site_type_symbol
 _atom_site_label
 _atom_site_symmetry_multiplicity
 _atom_site_fract_x
 _atom_site_fract_y
 _atom_site_fract_z
 _atom_site_occupancy
  H  H0  4  0.08934252  0.66298429  0.61834199  1
  H  H1  4  0.15097881  1.05134874  0.76487472  1
  H  H2  4  0.24388150  0.25701107  0.17197974  1
  H  H3  4  0.24827379  0.49362712  -0.04547650  1
  H  H4  4  0.25759066  0.60497378  0.67291934  1
  H  H5  4  0.41616959  0.93562717  0.50294657  1
  C  C6  4  0.14261015  0.72784442  0.11642235  1
  C  C7  4  0.18139195  0.98890347  0.70746262  1
  C  C8  4  0.23697867  0.97414932  0.51962009  1
  C  C9  4  0.24338606  1.11895898  0.64408659  1
  C  C10  4  0.25369126  0.73350997  0.65072131  1
  C  C11  4  0.34827318  0.92962301  0.55204120  1
  N  N12  4  -0.01155780  0.89826043  0.70872165  1
  N  N13  4  0.08220223  0.81225830  0.48226301  1
  N  N14  4  0.09532360  0.59512631  0.17079756  1
  N  N15  4  0.16586044  0.83164757  0.53321424  1
  N  N16  4  0.19425192  0.37804753  0.06814964  1
  N  N17  4  0.21004373  0.21874635  0.02392373  1
  N  N18  4  0.24938279  0.71810553  0.30042119  1
  N  N19  4  0.25596810  0.85213909  0.71928349  1
  N  N20  4  0.34171313  0.73589429  0.08714310  1
  N  N21  4  0.35283815  0.43648143  0.11270946  1
  N  N22  4  0.43507251  0.65765499  0.57931768  1
  N  N23  4  0.43883369  1.07812650  0.65872425  1
  O  O24  4  -0.07155891  0.79645452  0.68167928  1
  O  O25  4  -0.03651963  0.49985029  0.26400212  1
  O  O26  4  0.02080597  0.69433615  0.49812526  1
  O  O27  4  0.08261813  0.91289156  0.42611977  1
  O  O28  4  0.20676087  1.40589954  0.56714170  1
  O  O29  4  0.21876023  1.27386703  0.44989922  1
  O  O30  4  0.22000044  0.87812088  0.85655605  1
  O  O31  4  0.27943764  0.63713517  0.80454252  1
  O  O32  4  0.42249430  1.16259885  0.72113006  1
  O  O33  4  0.42942461  0.96485816  0.12383034  1
  O  O34  4  0.47643921  -0.00745488  0.36954079  1
  O  O35  4  0.49089327  0.30234676  0.47325787  1
