###############################################################################################
#
# CIF file generated by modified CIFWriter class 
# in pymatgen (v2025.03.10) https://pymatgen.org/
#
###############################################################################################
data_PBE+MBD_tight_222282e74daaebf
_symmetry_space_group_name_H-M   P2_1/c
_cell_length_a   13.70342912
_cell_length_b   12.28891059
_cell_length_c   13.72064750
_cell_angle_alpha   90.00000000
_cell_angle_beta   73.41879267
_cell_angle_gamma   90.00000000
_symmetry_Int_Tables_number   14
_chemical_formula_moiety   'C6 H6 N12 O12'
_chemical_formula_sum   'H24 C24 N48 O48'
_cell_volume   2214.47818897
_cell_formula_units_Z   4
loop_
 _symmetry_equiv_pos_site_id
 _symmetry_equiv_pos_as_xyz
  1  'x, y, z'
  2  '-x, -y, -z'
  3  '-x, y+1/2, -z+1/2'
  4  'x, -y+1/2, z+1/2'
loop_
 _atom_site_type_symbol
 _atom_site_label
 _atom_site_symmetry_multiplicity
 _atom_site_fract_x
 _atom_site_fract_y
 _atom_site_fract_z
 _atom_site_occupancy
  H  H0  4  -0.04691070  0.82156339  0.61095224  1
  H  H1  4  0.07789199  0.96646133  0.59180518  1
  H  H2  4  0.14944300  0.76527871  0.27366081  1
  H  H3  4  0.16858335  0.87274557  -0.08906965  1
  H  H4  4  0.27152637  0.87427531  0.15687516  1
  H  H5  4  0.29290899  0.72708844  -0.11042370  1
  C  C6  4  0.03059731  0.79089177  0.59856114  1
  C  C7  4  0.11221245  0.88558327  0.58573088  1
  C  C8  4  0.14570418  0.74889660  0.69644268  1
  C  C9  4  0.15789363  0.82406365  -0.01999525  1
  C  C10  4  0.22789256  0.67487119  0.61777339  1
  C  C11  4  0.23972385  0.72940454  -0.03387183  1
  N  N12  4  -0.01814386  0.68817898  0.46363359  1
  N  N13  4  -0.01138876  0.64066117  0.72613985  1
  N  N14  4  0.04325245  0.76591615  0.18832490  1
  N  N15  4  0.05842496  0.77503709  0.00788170  1
  N  N16  4  0.15461147  0.63644638  0.16995375  1
  N  N17  4  0.17449689  0.89244548  0.06155652  1
  N  N18  4  0.18901938  0.62520639  -0.01126289  1
  N  N19  4  0.19041062  0.55198501  -0.09024970  1
  N  N20  4  0.22301441  0.50091996  0.52795318  1
  N  N21  4  0.23667823  0.57594498  0.18239330  1
  N  N22  4  0.29308488  0.75363679  0.04146476  1
  N  N23  4  0.40080152  0.78281336  0.00308421  1
  O  O24  4  -0.09932480  0.73534011  0.49032032  1
  O  O25  4  -0.08413554  0.87988008  0.19460506  1
  O  O26  4  0.00793077  0.88429264  -0.10002649  1
  O  O27  4  0.01813882  0.58983718  0.79000882  1
  O  O28  4  0.13431586  1.02722256  0.43215505  1
  O  O29  4  0.21276819  1.03340476  -0.05161114  1
  O  O30  4  0.24862057  0.57402926  -0.17388299  1
  O  O31  4  0.25484395  0.49051289  0.13580061  1
  O  O32  4  0.26283098  1.04196575  0.08651256  1
  O  O33  4  0.27994751  0.61542597  0.24146686  1
  O  O34  4  0.43547711  0.66833389  0.56270765  1
  O  O35  4  0.44413427  0.74978586  -0.08187624  1
