###############################################################################################
#
# CIF file generated by modified CIFWriter class 
# in pymatgen (v2025.03.10) https://pymatgen.org/
#
###############################################################################################
data_PBE+MBD_tight_22728ed7e439688
_symmetry_space_group_name_H-M   Pna2_1
_cell_length_a   13.50750694
_cell_length_b   13.12046949
_cell_length_c   8.62879158
_cell_angle_alpha   90.00000000
_cell_angle_beta   90.00000000
_cell_angle_gamma   90.00000000
_symmetry_Int_Tables_number   33
_chemical_formula_moiety   'C6 H6 N12 O12'
_chemical_formula_sum   'H24 C24 N48 O48'
_cell_volume   1529.23614313
_cell_formula_units_Z   4
loop_
 _symmetry_equiv_pos_site_id
 _symmetry_equiv_pos_as_xyz
  1  'x, y, z'
  2  '-x, -y, z+1/2'
  3  '-x+1/2, y+1/2, z+1/2'
  4  'x+1/2, -y+1/2, z'
loop_
 _atom_site_type_symbol
 _atom_site_label
 _atom_site_symmetry_multiplicity
 _atom_site_fract_x
 _atom_site_fract_y
 _atom_site_fract_z
 _atom_site_occupancy
  H  H0  4  0.06030449  -0.01634330  0.72300128  1
  H  H1  4  0.09191345  0.40338699  0.22430668  1
  H  H2  4  0.13387500  0.71183255  0.17966932  1
  H  H3  4  0.14708283  -0.04485779  0.96773065  1
  H  H4  4  0.17646484  0.43611783  -0.01817520  1
  H  H5  4  0.21616951  0.23841283  0.81747420  1
  C  C6  4  0.13755173  0.00857852  0.71950546  1
  C  C7  4  0.15076607  0.46008494  0.23572367  1
  C  C8  4  0.17340053  0.64001070  0.19637855  1
  C  C9  4  0.19403901  -0.00965473  0.87919997  1
  C  C10  4  0.20685677  0.48001822  0.07829702  1
  C  C11  4  0.22527163  0.15802614  0.78900361  1
  N  N12  4  0.05471746  0.17609586  0.68549774  1
  N  N13  4  0.06763327  0.58161216  0.41302486  1
  N  N14  4  0.11132462  0.56243391  0.27008546  1
  N  N15  4  0.13584389  -0.08527228  0.47212284  1
  N  N16  4  0.14339866  0.11898945  0.69745492  1
  N  N17  4  0.14544231  0.62081452  -0.08824603  1
  N  N18  4  0.18255902  0.13520635  1.06576516  1
  N  N19  4  0.18990496  -0.04640445  0.59994097  1
  N  N20  4  0.19423288  0.58945444  0.05058743  1
  N  N21  4  0.19580477  0.34680910  0.45220487  1
  N  N22  4  0.22113418  0.42667509  0.35002949  1
  N  N23  4  0.22413220  0.09333236  0.92693588  1
  O  O24  4  -0.01570166  0.13119698  0.62852279  1
  O  O25  4  0.03007603  0.50750185  0.47819844  1
  O  O26  4  0.04543822  -0.08361343  0.48405324  1
  O  O27  4  0.05873264  0.26513075  0.72618807  1
  O  O28  4  0.06839314  0.66992927  0.45883983  1
  O  O29  4  0.11064063  0.70655921  -0.08871979  1
  O  O30  4  0.12657444  0.29292568  0.41307711  1
  O  O31  4  0.14835317  0.55967896  -0.19507899  1
  O  O32  4  0.15003666  0.07417461  1.15926065  1
  O  O33  4  0.18462409  -0.11969490  0.36551552  1
  O  O34  4  0.18913901  0.22777530  1.07935602  1
  O  O35  4  0.24817244  0.33823681  0.56710305  1
