###############################################################################################
#
# CIF file generated by modified CIFWriter class 
# in pymatgen (v2025.03.10) https://pymatgen.org/
#
###############################################################################################
data_PBE+MBD_tight_249ab69b9e81d13
_symmetry_space_group_name_H-M   Pna2_1
_cell_length_a   14.97018306
_cell_length_b   11.94867804
_cell_length_c   9.30730396
_cell_angle_alpha   90.00000000
_cell_angle_beta   90.00000000
_cell_angle_gamma   90.00000000
_symmetry_Int_Tables_number   33
_chemical_formula_moiety   'C6 H6 N12 O12'
_chemical_formula_sum   'H24 C24 N48 O48'
_cell_volume   1664.83373530
_cell_formula_units_Z   4
loop_
 _symmetry_equiv_pos_site_id
 _symmetry_equiv_pos_as_xyz
  1  'x, y, z'
  2  '-x, -y, z+1/2'
  3  '-x+1/2, y+1/2, z+1/2'
  4  'x+1/2, -y+1/2, z'
loop_
 _atom_site_type_symbol
 _atom_site_label
 _atom_site_symmetry_multiplicity
 _atom_site_fract_x
 _atom_site_fract_y
 _atom_site_fract_z
 _atom_site_occupancy
  H  H0  4  -0.10457665  0.73032220  0.82434068  1
  H  H1  4  -0.02256011  0.61500792  0.98673209  1
  H  H2  4  0.07722845  0.80499001  0.51899630  1
  H  H3  4  0.08477827  0.95467175  0.69551401  1
  H  H4  4  0.22415786  0.60058537  0.79248741  1
  H  H5  4  0.22925868  0.74943602  0.96988635  1
  C  C6  4  -0.03291191  0.74004893  0.80756328  1
  C  C7  4  0.02268542  0.66136557  0.91610746  1
  C  C8  4  0.07749137  0.77351940  0.62955416  1
  C  C9  4  0.08060254  0.87175328  0.74509409  1
  C  C10  4  0.16401293  0.65247316  0.79206596  1
  C  C11  4  0.16712977  0.74910884  0.90827404  1
  N  N12  4  -0.07428240  0.70750222  0.55321015  1
  N  N13  4  -0.05305934  0.94041332  0.88195872  1
  N  N14  4  -0.00625334  0.71348107  0.66139697  1
  N  N15  4  -0.00289677  0.85485922  0.82127315  1
  N  N16  4  0.05029687  0.50449304  0.75148927  1
  N  N17  4  0.06355960  0.79848933  1.10387493  1
  N  N18  4  0.08481855  0.58838170  0.83986186  1
  N  N19  4  0.08986990  0.72214977  0.99771288  1
  N  N20  4  0.15401238  0.70330702  0.65271165  1
  N  N21  4  0.15620174  0.85756962  0.84041809  1
  N  N22  4  0.20359189  0.66130039  0.53193904  1
  N  N23  4  0.23240481  0.92689877  0.82083218  1
  O  O24  4  -0.14927522  0.68431522  0.59618214  1
  O  O25  4  -0.13031318  0.91786268  0.91555670  1
  O  O26  4  -0.04926392  0.71929233  0.42982497  1
  O  O27  4  -0.02738754  0.47700151  0.77313755  1
  O  O28  4  -0.01574061  0.79660444  1.13699238  1
  O  O29  4  -0.01381788  1.02966459  0.89876608  1
  O  O30  4  0.10233839  0.46582300  0.66232323  1
  O  O31  4  0.12290174  0.85804661  1.15212614  1
  O  O32  4  0.18050730  0.69609287  0.41500677  1
  O  O33  4  0.20200524  0.40207540  0.39257759  1
  O  O34  4  0.22408476  1.00478253  0.73756558  1
  O  O35  4  0.23457847  0.09887326  0.06121189  1
