###############################################################################################
#
# CIF file generated by modified CIFWriter class 
# in pymatgen (v2025.03.10) https://pymatgen.org/
#
###############################################################################################
data_PBE+MBD_tight_24d1b6094f01060
_symmetry_space_group_name_H-M   Pcc2
_cell_length_a   12.80285725
_cell_length_b   12.46781320
_cell_length_c   10.06487634
_cell_angle_alpha   90.00000000
_cell_angle_beta   90.00000000
_cell_angle_gamma   90.00000000
_symmetry_Int_Tables_number   27
_chemical_formula_moiety   'C6 H6 N12 O12'
_chemical_formula_sum   'H24 C24 N48 O48'
_cell_volume   1606.59212395
_cell_formula_units_Z   4
loop_
 _symmetry_equiv_pos_site_id
 _symmetry_equiv_pos_as_xyz
  1  'x, y, z'
  2  '-x, -y, z'
  3  'x, -y, z+1/2'
  4  '-x, y, z+1/2'
loop_
 _atom_site_type_symbol
 _atom_site_label
 _atom_site_symmetry_multiplicity
 _atom_site_fract_x
 _atom_site_fract_y
 _atom_site_fract_z
 _atom_site_occupancy
  H  H0  4  0.06491675  0.36512652  -0.05949676  1
  H  H1  4  0.13305999  0.06268406  0.09111772  1
  H  H2  4  0.22343481  0.36247884  -0.18968412  1
  H  H3  4  0.28520285  0.05537031  -0.05127164  1
  H  H4  4  0.31493595  0.42071707  0.18707573  1
  H  H5  4  0.35146415  0.24512884  0.26993344  1
  C  C6  4  0.12788630  0.32114204  -0.01027626  1
  C  C7  4  0.16852231  0.14161736  0.07627921  1
  C  C8  4  0.23093944  0.31734969  -0.09700595  1
  C  C9  4  0.26952730  0.13652648  -0.01542115  1
  C  C10  4  0.27814930  0.35945912  0.12509079  1
  C  C11  4  0.30323244  0.24131844  0.18045651  1
  N  N12  4  -0.01446282  0.19121402  0.02653878  1
  N  N13  4  0.09447859  0.21248412  0.01471099  1
  N  N14  4  0.10189938  0.39930373  0.21549757  1
  N  N15  4  0.16599700  0.37760437  0.10831320  1
  N  N16  4  0.20569403  0.18519954  0.20487238  1
  N  N17  4  0.20599279  0.10983587  0.31398286  1
  N  N18  4  0.25565077  0.20808376  -0.12637485  1
  N  N19  4  0.27924785  0.17775978  -0.25985994  1
  N  N20  4  0.31219703  0.36550034  -0.01157051  1
  N  N21  4  0.34967825  0.17207452  0.07942821  1
  N  N22  4  0.35867160  0.46353894  -0.05727375  1
  N  N23  4  0.45204495  0.19189639  0.03706902  1
  O  O24  4  -0.07188679  0.25276540  -0.03282140  1
  O  O25  4  -0.03873066  0.11185488  0.09066529  1
  O  O26  4  0.00806420  0.38177993  0.19975943  1
  O  O27  4  0.13374270  0.04572911  0.31442966  1
  O  O28  4  0.14421438  0.43670406  0.31476937  1
  O  O29  4  0.26407534  0.24646219  -0.34355336  1
  O  O30  4  0.27435122  0.12057861  0.39681397  1
  O  O31  4  0.30967897  0.08587437  -0.27586331  1
  O  O32  4  0.37045539  0.46837456  -0.17782106  1
  O  O33  4  0.38619023  0.47218380  0.52646574  1
  O  O34  4  0.47880946  0.14773207  -0.06615931  1
  O  O35  4  0.49583731  0.24988332  0.60974299  1
