###############################################################################################
#
# CIF file generated by modified CIFWriter class 
# in pymatgen (v2025.03.10) https://pymatgen.org/
#
###############################################################################################
data_PBE+MBD_tight_2d309be35dfb5b0
_symmetry_space_group_name_H-M   P-1
_cell_length_a   10.46419308
_cell_length_b   11.25243009
_cell_length_c   13.75243995
_cell_angle_alpha   90.85430355
_cell_angle_beta   91.71681351
_cell_angle_gamma   90.25404820
_symmetry_Int_Tables_number   2
_chemical_formula_moiety   'C6 H6 N12 O12'
_chemical_formula_sum   'H24 C24 N48 O48'
_cell_volume   1618.39070336
_cell_formula_units_Z   4
loop_
 _symmetry_equiv_pos_site_id
 _symmetry_equiv_pos_as_xyz
  1  'x, y, z'
  2  '-x, -y, -z'
loop_
 _atom_site_type_symbol
 _atom_site_label
 _atom_site_symmetry_multiplicity
 _atom_site_fract_x
 _atom_site_fract_y
 _atom_site_fract_z
 _atom_site_occupancy
  H  H0  2  -0.00016366  0.21309168  0.46102490  1
  H  H1  2  0.05243051  0.89818023  0.91665995  1
  H  H2  2  0.08391523  0.56438758  1.01545682  1
  H  H3  2  0.11481550  0.07244674  0.36360342  1
  H  H4  2  0.18630589  0.56260071  0.86066552  1
  H  H5  2  0.24009365  0.99457901  0.98730405  1
  H  H6  2  0.25681281  0.48086059  0.49963739  1
  H  H7  2  0.27839876  0.35057023  0.63910585  1
  H  H8  2  0.40689837  0.72516868  1.14298647  1
  H  H9  2  0.46144222  0.23954444  0.33476403  1
  H  H10  2  0.48179936  0.10992492  0.47249963  1
  H  H11  2  0.49544705  0.26609671  0.01580355  1
  C  C12  2  0.10275590  0.23054272  0.46491104  1
  C  C13  2  0.12338197  0.83361744  0.94163270  1
  C  C14  2  0.14636097  0.64117829  1.00715160  1
  C  C15  2  0.17964402  0.13652480  0.40007655  1
  C  C16  2  0.21128657  0.64137409  0.90486421  1
  C  C17  2  0.24831690  0.89795538  0.98934831  1
  C  C18  2  0.25714554  0.38657520  0.47889885  1
  C  C19  2  0.27142770  0.30158853  0.56974222  1
  C  C20  2  0.33694115  0.73736822  1.08317125  1
  C  C21  2  0.37798160  0.24277140  0.38071242  1
  C  C22  2  0.39168388  0.15868223  0.47166353  1
  C  C23  2  0.40030932  0.74080288  0.97953425  1
  N  N24  2  -0.06529743  0.74123596  1.01472205  1
  N  N25  2  0.04165077  0.43223053  0.40659225  1
  N  N26  2  0.06582261  0.24203159  0.64280945  1
  N  N27  2  0.07164676  0.75178070  1.01121949  1
  N  N28  2  0.13534801  0.34960341  0.43352809  1
  N  N29  2  0.15490187  0.22819840  0.56449150  1
  N  N30  2  0.15768425  0.75033502  0.86388179  1
  N  N31  2  0.20390487  0.79602518  0.77758137  1
  N  N32  2  0.21169813  0.89531843  1.16625857  1
  N  N33  2  0.21229696  0.24787237  0.24860578  1
  N  N34  2  0.22106309  0.57844050  1.16990876  1
  N  N35  2  0.24525606  0.64047784  1.08174899  1
  N  N36  2  0.25137078  -0.00653760  0.52348834  1
  N  N37  2  0.26301683  0.19332830  0.33139303  1
  N  N38  2  0.27896081  0.85559814  1.08661608  1
  N  N39  2  0.28099429  0.07846339  0.45568373  1
  N  N40  2  0.34882264  0.64720663  0.91736498  1
  N  N41  2  0.35917311  0.36417673  0.41304327  1
  N  N42  2  0.35993603  0.85538228  0.93983371  1
  N  N43  2  0.38430022  0.23058701  0.55867074  1
  N  N44  2  0.42490481  0.54865823  0.89270130  1
  N  N45  2  0.44396575  0.45572960  0.38897935  1
  N  N46  2  0.45133477  0.93477602  0.90460340  1
  N  N47  2  0.46110950  0.20039239  0.64247141  1
  O  O48  2  -0.12449008  0.83287740  1.00180342  1
  O  O49  2  -0.10757971  0.64399733  1.03577436  1
  O  O50  2  -0.06364622  0.39199653  0.38258804  1
  O  O51  2  -0.04284065  0.20932917  0.62406377  1
  O  O52  2  0.07601556  0.53667108  0.40690346  1
  O  O53  2  0.09839330  0.22935379  0.22994584  1
  O  O54  2  0.11214914  0.27857601  0.72013539  1
  O  O55  2  0.12141380  0.52123098  1.17026281  1
  O  O56  2  0.14036334  -0.04165270  0.52223358  1
  O  O57  2  0.14085255  0.98093543  1.15209995  1
  O  O58  2  0.18004301  0.90128161  0.76333710  1
  O  O59  2  0.23233690  0.84355881  1.24239896  1
  O  O60  2  0.26105107  0.72650586  0.72553260  1
  O  O61  2  0.28760197  0.30633957  0.20249739  1
  O  O62  2  0.30408082  0.58585289  1.23325660  1
  O  O63  2  0.34047209  -0.03923447  0.57670521  1
  O  O64  2  0.36987673  0.46429593  0.85322717  1
  O  O65  2  0.41970042  1.03927172  0.89908490  1
  O  O66  2  0.42188767  0.55410897  0.42380113  1
  O  O67  2  0.43226002  0.24832630  0.71880645  1
  O  O68  2  0.44822402  0.11007366  0.12056815  1
  O  O69  2  0.45061478  0.86723872  0.37202808  1
  O  O70  2  0.46082680  0.44164117  0.08663795  1
  O  O71  2  0.46802767  0.57171516  0.66305519  1
