###############################################################################################
#
# CIF file generated by modified CIFWriter class 
# in pymatgen (v2025.03.10) https://pymatgen.org/
#
###############################################################################################
data_PBE+MBD_tight_33d050922344203
_symmetry_space_group_name_H-M   P2_1/c
_cell_length_a   14.93352771
_cell_length_b   13.52213822
_cell_length_c   8.27203811
_cell_angle_alpha   90.00000000
_cell_angle_beta   97.52862312
_cell_angle_gamma   90.00000000
_symmetry_Int_Tables_number   14
_chemical_formula_moiety   'C6 H6 N12 O12'
_chemical_formula_sum   'H24 C24 N48 O48'
_cell_volume   1655.99971401
_cell_formula_units_Z   4
loop_
 _symmetry_equiv_pos_site_id
 _symmetry_equiv_pos_as_xyz
  1  'x, y, z'
  2  '-x, -y, -z'
  3  '-x, y+1/2, -z+1/2'
  4  'x, -y+1/2, z+1/2'
loop_
 _atom_site_type_symbol
 _atom_site_label
 _atom_site_symmetry_multiplicity
 _atom_site_fract_x
 _atom_site_fract_y
 _atom_site_fract_z
 _atom_site_occupancy
  H  H0  4  0.12701940  0.36156342  -0.05096772  1
  H  H1  4  0.17167545  0.87896383  0.71657966  1
  H  H2  4  0.17183473  1.05653443  0.21007038  1
  H  H3  4  0.20642659  0.70496806  -0.02529829  1
  H  H4  4  0.40303179  1.11007642  0.50864312  1
  H  H5  4  0.42593254  0.96099629  0.66440871  1
  C  C6  4  0.17912527  0.41767410  -0.02018688  1
  C  C7  4  0.20501378  0.92748795  0.63722747  1
  C  C8  4  0.20677362  1.02735170  0.32464959  1
  C  C9  4  0.22912969  0.87195394  0.48010231  1
  C  C10  4  0.34069366  0.43285131  0.00167390  1
  C  C11  4  0.35629270  0.96684137  0.60512348  1
  N  N12  4  0.06671112  0.47522379  0.15570319  1
  N  N13  4  0.13539267  0.87298765  0.20773752  1
  N  N14  4  0.14725624  0.48996135  0.08745616  1
  N  N15  4  0.18815313  0.57657261  -0.16326557  1
  N  N16  4  0.26551046  0.37439013  0.04727408  1
  N  N17  4  0.27377811  0.32019160  0.19075751  1
  N  N18  4  0.29208108  0.53752274  0.22177014  1
  N  N19  4  0.30473580  1.04253826  0.33547716  1
  N  N20  4  0.32264462  0.57946279  0.37972316  1
  N  N21  4  0.32823208  0.62033231  0.00554541  1
  N  N22  4  0.34201407  0.41101033  -0.29551988  1
  N  N23  4  0.37861518  0.84868773  0.38548917  1
  O  O24  4  0.02310700  0.40108757  0.11022918  1
  O  O25  4  0.04678212  0.96112722  0.74941945  1
  O  O26  4  0.10134858  0.57635265  -0.40533472  1
  O  O27  4  0.12821664  0.71657872  -0.27511382  1
  O  O28  4  0.20302481  0.28661479  0.23013584  1
  O  O29  4  0.26322136  0.88730652  0.95249102  1
  O  O30  4  0.29097396  0.40248729  -0.42305521  1
  O  O31  4  0.34339760  0.78731983  0.28820540  1
  O  O32  4  0.35058769  1.19119986  0.76060745  1
  O  O33  4  0.40281315  0.92816010  0.92733885  1
  O  O34  4  0.42168545  1.11056777  0.23136388  1
  O  O35  4  0.45443077  0.61504533  -0.10961769  1
