###############################################################################################
#
# CIF file generated by modified CIFWriter class 
# in pymatgen (v2025.03.10) https://pymatgen.org/
#
###############################################################################################
data_PBE+MBD_tight_35751f404ffb262
_symmetry_space_group_name_H-M   P2_1/c
_cell_length_a   8.64270230
_cell_length_b   14.29628022
_cell_length_c   15.43259871
_cell_angle_alpha   90.00000000
_cell_angle_beta   123.97766357
_cell_angle_gamma   90.00000000
_symmetry_Int_Tables_number   14
_chemical_formula_moiety   'C6 H6 N12 O12'
_chemical_formula_sum   'H24 C24 N48 O48'
_cell_volume   1581.24816338
_cell_formula_units_Z   4
loop_
 _symmetry_equiv_pos_site_id
 _symmetry_equiv_pos_as_xyz
  1  'x, y, z'
  2  '-x, -y, -z'
  3  '-x, y+1/2, -z+1/2'
  4  'x, -y+1/2, z+1/2'
loop_
 _atom_site_type_symbol
 _atom_site_label
 _atom_site_symmetry_multiplicity
 _atom_site_fract_x
 _atom_site_fract_y
 _atom_site_fract_z
 _atom_site_occupancy
  H  H0  4  -0.08461926  0.77147974  0.60921774  1
  H  H1  4  0.15491721  1.03639454  0.68836786  1
  H  H2  4  0.19584646  0.79174344  0.13291102  1
  H  H3  4  0.29833414  0.74447842  0.91978205  1
  H  H4  4  0.43683407  0.89408885  0.96759411  1
  H  H5  4  0.43755802  0.97255583  0.71190023  1
  C  C6  4  0.04080893  0.69246136  0.17137215  1
  C  C7  4  0.18357663  0.96471566  0.71838266  1
  C  C8  4  0.22465173  0.76639934  0.68601836  1
  C  C9  4  0.26861364  0.78270110  0.85079524  1
  C  C10  4  0.36286975  0.88454760  0.88318050  1
  C  C11  4  0.36724342  0.92264218  0.73263335  1
  N  N12  4  -0.11452124  0.56160363  0.04742621  1
  N  N13  4  -0.05665206  0.76712636  0.27921449  1
  N  N14  4  0.02405470  0.90638207  0.64864732  1
  N  N15  4  0.06906006  0.79387943  0.77325876  1
  N  N16  4  0.11166617  0.99180473  0.85238680  1
  N  N17  4  0.23101641  0.54044213  0.32529231  1
  N  N18  4  0.31567612  0.84057892  0.66802883  1
  N  N19  4  0.33670185  0.76554447  0.29533763  1
  N  N20  4  0.34220864  0.36315938  0.60456827  1
  N  N21  4  0.37279173  0.63539398  0.81287495  1
  N  N22  4  0.40826600  0.82035734  0.61728078  1
  N  N23  4  0.48096515  0.90254052  0.84552156  1
  O  O24  4  -0.21624716  0.62124956  -0.01574230  1
  O  O25  4  -0.20888625  0.72097615  0.69785060  1
  O  O26  4  -0.11952400  0.47719634  0.03322725  1
  O  O27  4  -0.01011048  0.45381008  0.29024884  1
  O  O28  4  -0.00168508  0.79716985  0.36578632  1
  O  O29  4  0.14452373  0.96477104  0.93644818  1
  O  O30  4  0.26845111  0.13612320  0.15285766  1
  O  O31  4  0.27724466  0.33400996  0.51552827  1
  O  O32  4  0.37746774  0.74227417  0.57786832  1
  O  O33  4  0.38807119  0.89697489  0.38994324  1
  O  O34  4  0.39374853  0.59623263  0.74958026  1
  O  O35  4  0.49907067  0.38271058  0.88510006  1
