###############################################################################################
#
# CIF file generated by modified CIFWriter class 
# in pymatgen (v2025.03.10) https://pymatgen.org/
#
###############################################################################################
data_PBE+MBD_tight_3832903d53118c8
_symmetry_space_group_name_H-M   P2_1/c
_cell_length_a   28.27801952
_cell_length_b   7.81012754
_cell_length_c   7.57083671
_cell_angle_alpha   90.00000000
_cell_angle_beta   86.64180668
_cell_angle_gamma   90.00000000
_symmetry_Int_Tables_number   14
_chemical_formula_moiety   'C6 H6 N12 O12'
_chemical_formula_sum   'H24 C24 N48 O48'
_cell_volume   1669.18548405
_cell_formula_units_Z   4
loop_
 _symmetry_equiv_pos_site_id
 _symmetry_equiv_pos_as_xyz
  1  'x, y, z'
  2  '-x, -y, -z'
  3  '-x+1/2, y+1/2, -z+1/2'
  4  'x+1/2, -y+1/2, z+1/2'
loop_
 _atom_site_type_symbol
 _atom_site_label
 _atom_site_symmetry_multiplicity
 _atom_site_fract_x
 _atom_site_fract_y
 _atom_site_fract_z
 _atom_site_occupancy
  H  H0  4  0.04622618  0.01292340  1.02426467  1
  H  H1  4  0.05399875  0.13499648  1.31375676  1
  H  H2  4  0.07676443  0.51327296  0.94022538  1
  H  H3  4  0.15988588  0.51060431  0.89472933  1
  H  H4  4  0.19299857  0.01034321  0.94106667  1
  H  H5  4  0.20049662  0.14107696  1.22909147  1
  C  C6  4  0.07668692  0.09838955  1.02771618  1
  C  C7  4  0.08137816  0.18042286  1.21708403  1
  C  C8  4  0.09129752  0.39439483  0.99053441  1
  C  C9  4  0.14754399  0.39168038  0.95845398  1
  C  C10  4  0.16344073  0.09607013  0.97800803  1
  C  C11  4  0.16831419  0.18098929  1.16648470  1
  N  N12  4  0.02675528  0.26527588  0.83196976  1
  N  N13  4  0.07123082  0.24563020  0.90908452  1
  N  N14  4  0.07594198  0.36324367  1.17611895  1
  N  N15  4  0.08466978  0.48635705  1.30442863  1
  N  N16  4  0.11572392  -0.14844382  0.88119106  1
  N  N17  4  0.11919844  0.00357121  0.98176925  1
  N  N18  4  0.12711916  0.13952655  1.27978268  1
  N  N19  4  0.13131489  0.06119874  1.44544693  1
  N  N20  4  0.16252104  0.24116436  0.85474872  1
  N  N21  4  0.16858310  0.36454347  1.12798949  1
  N  N22  4  0.20530736  0.26904386  0.74065424  1
  N  N23  4  0.20797997  0.46806813  1.17051323  1
  O  O24  4  0.00554007  0.13190987  0.80444073  1
  O  O25  4  0.01542395  0.41038067  0.79278124  1
  O  O26  4  0.07581643  -0.20725946  0.87086929  1
  O  O27  4  0.08021811  0.43854278  1.45854326  1
  O  O28  4  0.09437766  0.03367685  1.53333564  1
  O  O29  4  0.09481946  0.63015957  1.24886866  1
  O  O30  4  0.15300978  -0.20964796  0.82145785  1
  O  O31  4  0.17162068  0.02714416  1.48453803  1
  O  O32  4  0.20486935  0.39968913  0.65316617  1
  O  O33  4  0.20879851  0.61177031  1.10758795  1
  O  O34  4  0.23524568  0.15723561  0.73892042  1
  O  O35  4  0.23527751  0.40481554  1.27159176  1
