###############################################################################################
#
# CIF file generated by modified CIFWriter class 
# in pymatgen (v2025.03.10) https://pymatgen.org/
#
###############################################################################################
data_PBE+MBD_tight_3f235e14641835f
_symmetry_space_group_name_H-M   P2_1/c
_cell_length_a   14.77469048
_cell_length_b   15.00439701
_cell_length_c   7.60741934
_cell_angle_alpha   90.00000000
_cell_angle_beta   75.34983586
_cell_angle_gamma   90.00000000
_symmetry_Int_Tables_number   14
_chemical_formula_moiety   'C6 H6 N12 O12'
_chemical_formula_sum   'H24 C24 N48 O48'
_cell_volume   1631.62341432
_cell_formula_units_Z   4
loop_
 _symmetry_equiv_pos_site_id
 _symmetry_equiv_pos_as_xyz
  1  'x, y, z'
  2  '-x, -y, -z'
  3  '-x+1/2, y+1/2, -z+1/2'
  4  'x+1/2, -y+1/2, z+1/2'
loop_
 _atom_site_type_symbol
 _atom_site_label
 _atom_site_symmetry_multiplicity
 _atom_site_fract_x
 _atom_site_fract_y
 _atom_site_fract_z
 _atom_site_occupancy
  H  H0  4  0.05238635  0.43918240  0.64414962  1
  H  H1  4  0.09969674  1.02708321  0.96296295  1
  H  H2  4  0.11213610  0.98688412  1.26412767  1
  H  H3  4  0.13176695  0.57606327  0.53155865  1
  H  H4  4  0.23644284  0.79221220  0.75994913  1
  H  H5  4  0.24706637  0.25365064  0.44338119  1
  C  C6  4  0.12815061  0.43008279  0.59861618  1
  C  C7  4  0.16267583  0.98852134  0.96106021  1
  C  C8  4  0.17209693  0.96374880  1.15812752  1
  C  C9  4  0.18107813  0.52085502  0.52206591  1
  C  C10  4  0.24465797  0.85105335  0.83907550  1
  C  C11  4  0.24479694  0.32574717  0.46472298  1
  N  N12  4  0.08575615  0.30406681  0.41762495  1
  N  N13  4  0.09859995  0.81722064  1.23948977  1
  N  N14  4  0.10352549  0.89790606  0.74099644  1
  N  N15  4  0.10788072  0.36383225  0.90617939  1
  N  N16  4  0.15492171  0.36218827  0.45801981  1
  N  N17  4  0.16240246  0.90632218  0.86279881  1
  N  N18  4  0.16803797  0.39789867  0.74324473  1
  N  N19  4  0.18270770  0.86775123  1.17679570  1
  N  N20  4  0.20472573  0.50744682  0.18859264  1
  N  N21  4  0.24172785  0.51052185  0.33882766  1
  N  N22  4  0.24641599  1.11875006  0.78947299  1
  N  N23  4  0.24722095  1.04012777  0.88470068  1
  O  O24  4  0.00805087  0.33657870  0.43956925  1
  O  O25  4  0.02685996  0.38892458  0.94131680  1
  O  O26  4  0.02803449  0.85921118  1.30991551  1
  O  O27  4  0.03805916  0.95054424  0.76602524  1
  O  O28  4  0.10663450  0.73646007  1.21984081  1
  O  O29  4  0.11318190  0.23095602  0.35755350  1
  O  O30  4  0.12060458  0.52217511  0.21681960  1
  O  O31  4  0.12194616  0.83778333  0.63096541  1
  O  O32  4  0.14555022  0.31633797  0.99787799  1
  O  O33  4  0.17280962  1.13801891  0.75151928  1
  O  O34  4  0.17944297  0.66007602  0.75190643  1
  O  O35  4  0.23939497  0.99288171  1.45778389  1
