###############################################################################################
#
# CIF file generated by modified CIFWriter class 
# in pymatgen (v2025.03.10) https://pymatgen.org/
#
###############################################################################################
data_PBE+MBD_tight_3fb7f29024f0b1e
_symmetry_space_group_name_H-M   P-4
_cell_length_a   16.95225196
_cell_length_b   16.95225196
_cell_length_c   7.91919148
_cell_angle_alpha   90.00000000
_cell_angle_beta   90.00000000
_cell_angle_gamma   90.00000000
_symmetry_Int_Tables_number   81
_chemical_formula_moiety   'C6 H6 N12 O12'
_chemical_formula_sum   'H24 C24 N48 O48'
_cell_volume   2275.80811389
_cell_formula_units_Z   4
loop_
 _symmetry_equiv_pos_site_id
 _symmetry_equiv_pos_as_xyz
  1  'x, y, z'
  2  'y, -x, -z'
  3  '-x, -y, z'
  4  '-y, x, -z'
loop_
 _atom_site_type_symbol
 _atom_site_label
 _atom_site_symmetry_multiplicity
 _atom_site_fract_x
 _atom_site_fract_y
 _atom_site_fract_z
 _atom_site_occupancy
  H  H0  4  0.08142561  0.46535597  0.09501861  1
  H  H1  4  0.12889645  0.40813773  0.57876188  1
  H  H2  4  0.15817608  0.57423455  0.20675143  1
  H  H3  4  0.24717590  0.33427509  0.55544395  1
  H  H4  4  0.28682645  0.33388968  0.04471672  1
  H  H5  4  0.36276673  0.43943817  0.17146107  1
  C  C6  4  0.13230780  0.44569803  0.16836275  1
  C  C7  4  0.15770554  0.41859803  0.45731282  1
  C  C8  4  0.18133518  0.51685816  0.24500703  1
  C  C9  4  0.23712989  0.36829590  0.44047414  1
  C  C10  4  0.25368753  0.36685903  0.13986031  1
  C  C11  4  0.30250723  0.43671836  0.22067489  1
  N  N12  4  0.02275502  0.40006617  0.34979163  1
  N  N13  4  0.10583978  0.39955289  0.31661480  1
  N  N14  4  0.15711121  0.37304728  -0.09565011  1
  N  N15  4  0.17046568  0.50247990  0.42512760  1
  N  N16  4  0.18345296  0.39978196  0.06344713  1
  N  N17  4  0.18990282  0.25173608  0.27998594  1
  N  N18  4  0.20214648  0.55189145  0.54763708  1
  N  N19  4  0.23807942  0.31902047  0.28939358  1
  N  N20  4  0.26281113  0.51076698  0.19264366  1
  N  N21  4  0.29484162  0.56688283  0.08201415  1
  N  N22  4  0.30238660  0.42127822  0.40303258  1
  N  N23  4  0.37723202  0.40196466  0.47938460  1
  O  O24  4  -0.01938755  0.40738335  0.22461115  1
  O  O25  4  0.00199765  0.38981780  0.49522133  1
  O  O26  4  0.09188155  0.39592166  -0.14089224  1
  O  O27  4  0.16357978  0.22803945  0.41473828  1
  O  O28  4  0.18097478  0.22377016  0.13881986  1
  O  O29  4  0.20336534  0.33225452  -0.17531812  1
  O  O30  4  0.20795318  0.52377378  0.69027481  1
  O  O31  4  0.21916059  0.61876047  0.50172531  1
  O  O32  4  0.25434432  0.62548427  0.05486152  1
  O  O33  4  0.36038657  0.55255024  0.02473567  1
  O  O34  4  0.37349002  0.37966956  0.62532958  1
  O  O35  4  0.41362861  0.56410671  0.60587746  1
