###############################################################################################
#
# CIF file generated by modified CIFWriter class 
# in pymatgen (v2025.03.10) https://pymatgen.org/
#
###############################################################################################
data_PBE+MBD_tight_411aec1bd1bdaf8
_symmetry_space_group_name_H-M   P2_1/c
_cell_length_a   9.12956778
_cell_length_b   8.30472337
_cell_length_c   22.19731187
_cell_angle_alpha   90.00000000
_cell_angle_beta   77.90187520
_cell_angle_gamma   90.00000000
_symmetry_Int_Tables_number   14
_chemical_formula_moiety   'C6 H6 N12 O12'
_chemical_formula_sum   'H24 C24 N48 O48'
_cell_volume   1645.58911584
_cell_formula_units_Z   4
loop_
 _symmetry_equiv_pos_site_id
 _symmetry_equiv_pos_as_xyz
  1  'x, y, z'
  2  '-x, -y, -z'
  3  '-x, y+1/2, -z+1/2'
  4  'x, -y+1/2, z+1/2'
loop_
 _atom_site_type_symbol
 _atom_site_label
 _atom_site_symmetry_multiplicity
 _atom_site_fract_x
 _atom_site_fract_y
 _atom_site_fract_z
 _atom_site_occupancy
  H  H0  4  -0.06611686  0.59399510  0.18513946  1
  H  H1  4  0.10377120  1.12928517  0.66578803  1
  H  H2  4  0.14357192  0.93319015  0.06253098  1
  H  H3  4  0.21863386  0.98225575  0.15925543  1
  H  H4  4  0.43083083  0.95894696  0.53142706  1
  H  H5  4  0.49327575  0.09032838  0.37321430  1
  C  C6  4  0.04447459  0.86750642  0.66014697  1
  C  C7  4  0.15772237  1.01734149  0.64744747  1
  C  C8  4  0.16938884  0.82206829  0.08451748  1
  C  C9  4  0.21915435  0.64575055  0.64779464  1
  C  C10  4  0.33897985  0.90984193  0.56564030  1
  C  C11  4  0.38920288  0.87803400  0.62896040  1
  N  N12  4  -0.04316225  0.65934738  0.06295550  1
  N  N13  4  0.03647522  0.77898265  0.60468532  1
  N  N14  4  0.10398827  0.76390873  0.19106535  1
  N  N15  4  0.11212961  0.74885822  0.25231421  1
  N  N16  4  0.21714362  1.02912334  0.58099519  1
  N  N17  4  0.25084672  0.31145627  0.05688368  1
  N  N18  4  0.28837933  0.98032968  0.67276966  1
  N  N19  4  0.29029224  0.76071873  0.54391934  1
  N  N20  4  0.32025324  0.77314912  -0.02089977  1
  N  N21  4  0.34908129  0.39796605  0.20661897  1
  N  N22  4  0.36589611  0.78858634  0.14577809  1
  N  N23  4  0.48906539  0.89003695  0.15041413  1
  O  O24  4  -0.13058910  0.54963117  0.08150463  1
  O  O25  4  -0.01853291  0.72425686  0.01212785  1
  O  O26  4  0.04322163  0.63506190  0.28056103  1
  O  O27  4  0.18301142  0.64637152  0.77280700  1
  O  O28  4  0.18366612  0.20142220  0.08724652  1
  O  O29  4  0.26031994  0.29516707  0.23082044  1
  O  O30  4  0.27457104  0.59834371  0.46439844  1
  O  O31  4  0.33723513  1.19757298  0.50703050  1
  O  O32  4  0.39053551  0.17741977  0.85389251  1
  O  O33  4  0.39391853  0.67197927  -0.05418893  1
  O  O34  4  0.46034965  0.46717743  0.65832019  1
  O  O35  4  0.47932856  0.41611250  0.21006143  1
