###############################################################################################
#
# CIF file generated by modified CIFWriter class 
# in pymatgen (v2025.03.10) https://pymatgen.org/
#
###############################################################################################
data_PBE+MBD_tight_42f11281ab70016
_symmetry_space_group_name_H-M   Pnn2
_cell_length_a   16.21095332
_cell_length_b   13.85567888
_cell_length_c   7.14074967
_cell_angle_alpha   90.00000000
_cell_angle_beta   90.00000000
_cell_angle_gamma   90.00000000
_symmetry_Int_Tables_number   34
_chemical_formula_moiety   'C6 H6 N12 O12'
_chemical_formula_sum   'H24 C24 N48 O48'
_cell_volume   1603.91065868
_cell_formula_units_Z   4
loop_
 _symmetry_equiv_pos_site_id
 _symmetry_equiv_pos_as_xyz
  1  'x, y, z'
  2  '-x, -y, z'
  3  'x+1/2, -y+1/2, z+1/2'
  4  '-x+1/2, y+1/2, z+1/2'
loop_
 _atom_site_type_symbol
 _atom_site_label
 _atom_site_symmetry_multiplicity
 _atom_site_fract_x
 _atom_site_fract_y
 _atom_site_fract_z
 _atom_site_occupancy
  H  H0  4  0.08220455  0.45966282  0.70882295  1
  H  H1  4  0.09271033  0.16891526  0.67775075  1
  H  H2  4  0.15850258  0.79461588  0.46279466  1
  H  H3  4  0.15986084  0.49315765  0.98391676  1
  H  H4  4  0.20443758  0.22761750  0.48845580  1
  H  H5  4  0.23343752  0.22321478  1.15110498  1
  C  C6  4  0.12058164  0.39807514  0.74739493  1
  C  C7  4  0.12712002  0.22696374  0.74610965  1
  C  C8  4  0.17339745  0.42080046  0.93141831  1
  C  C9  4  0.19977124  0.26684943  0.62042626  1
  C  C10  4  0.20900866  0.25976402  1.02733528  1
  C  C11  4  0.21992735  0.80449111  0.40158338  1
  N  N12  4  -0.00755913  0.30787830  0.68699343  1
  N  N13  4  0.07227907  0.31121811  0.77801537  1
  N  N14  4  0.09183233  0.34373266  1.18403648  1
  N  N15  4  0.12589146  0.10897557  1.00621140  1
  N  N16  4  0.14952909  0.73879964  0.12125056  1
  N  N17  4  0.16161980  0.19232057  0.91817216  1
  N  N18  4  0.16271095  0.34738909  1.07560351  1
  N  N19  4  0.17298723  0.36689383  0.59287107  1
  N  N20  4  0.18322614  0.97265216  0.49129097  1
  N  N21  4  0.21894099  0.43208736  0.48992668  1
  N  N22  4  0.22363540  0.75902905  0.22105233  1
  N  N23  4  0.23944988  0.90892950  0.38986089  1
  O  O24  4  -0.04031044  0.38553644  0.65617618  1
  O  O25  4  -0.03571716  0.22769856  0.66040047  1
  O  O26  4  0.04552175  0.41344191  1.17374868  1
  O  O27  4  0.07442196  0.06588401  0.91515833  1
  O  O28  4  0.08460405  0.27225259  1.28495538  1
  O  O29  4  0.08538041  0.75855557  0.20130747  1
  O  O30  4  0.11217078  0.94629963  0.49913484  1
  O  O31  4  0.15353010  0.08880574  1.16025673  1
  O  O32  4  0.15797564  0.70038456  -0.03190203  1
  O  O33  4  0.19727561  0.51680155  0.49853257  1
  O  O34  4  0.21328758  1.04804553  0.54785660  1
  O  O35  4  0.22467470  0.89787242  -0.10479596  1
