###############################################################################################
#
# CIF file generated by modified CIFWriter class 
# in pymatgen (v2025.03.10) https://pymatgen.org/
#
###############################################################################################
data_PBE+MBD_tight_434d610b05dc7e6
_symmetry_space_group_name_H-M   Cc
_cell_length_a   17.11218191
_cell_length_b   7.48363037
_cell_length_c   13.72095232
_cell_angle_alpha   90.00000000
_cell_angle_beta   108.69873834
_cell_angle_gamma   90.00000000
_symmetry_Int_Tables_number   9
_chemical_formula_moiety   'C6 H6 N12 O12'
_chemical_formula_sum   'H24 C24 N48 O48'
_cell_volume   1664.37663609
_cell_formula_units_Z   4
loop_
 _symmetry_equiv_pos_site_id
 _symmetry_equiv_pos_as_xyz
  1  'x, y, z'
  2  'x, -y, z+1/2'
  3  'x+1/2, y+1/2, z'
  4  'x+1/2, -y+1/2, z+1/2'
loop_
 _atom_site_type_symbol
 _atom_site_label
 _atom_site_symmetry_multiplicity
 _atom_site_fract_x
 _atom_site_fract_y
 _atom_site_fract_z
 _atom_site_occupancy
  H  H0  4  0.11987450  0.78596366  -0.03216927  1
  H  H1  4  0.23886768  1.08866933  0.22152938  1
  H  H2  4  0.24202711  0.91145611  -0.05924089  1
  H  H3  4  0.26685536  0.41616678  0.17048452  1
  H  H4  4  0.32157845  0.87032989  0.33856543  1
  H  H5  4  0.38816368  0.45680251  0.64565101  1
  C  C6  4  0.17434515  0.77882831  0.03656310  1
  C  C7  4  0.24534385  0.96723065  0.18064639  1
  C  C8  4  0.25435321  0.86116395  0.01898010  1
  C  C9  4  0.26047489  0.56002875  0.15669553  1
  C  C10  4  0.30147466  0.82228479  0.25917753  1
  C  C11  4  0.34061935  0.64413113  0.14014508  1
  N  N12  4  0.11029605  0.84964170  0.17199948  1
  N  N13  4  0.13431360  0.45650300  0.02061714  1
  N  N14  4  0.16584961  0.89486400  0.11996191  1
  N  N15  4  0.19025084  0.59566694  0.06815916  1
  N  N16  4  0.23807556  0.56951093  0.32777567  1
  N  N17  4  0.25584406  0.65530861  0.24747037  1
  N  N18  4  0.27501323  1.00554057  0.09511842  1
  N  N19  4  0.31736649  0.72529649  0.04018453  1
  N  N20  4  0.34397418  1.11184472  0.10832677  1
  N  N21  4  0.37097197  0.77663495  0.22423617  1
  N  N22  4  0.37307717  0.28184993  0.48179794  1
  N  N23  4  0.44563266  0.71799510  0.30660931  1
  O  O24  4  0.05269038  0.75363918  0.12579902  1
  O  O25  4  0.07940901  0.49623722  -0.05764684  1
  O  O26  4  0.12545109  0.91445184  0.25848112  1
  O  O27  4  0.14875033  0.31041998  0.06253041  1
  O  O28  4  0.20903486  0.41833797  0.30950820  1
  O  O29  4  0.25060931  0.65481154  0.40778244  1
  O  O30  4  0.35254648  0.80143903  -0.09904610  1
  O  O31  4  0.36310655  1.21026524  0.18434352  1
  O  O32  4  0.37731094  -0.10066387  0.54207364  1
  O  O33  4  0.43356268  0.62324506  0.01641927  1
  O  O34  4  0.44804261  0.75026737  0.39424435  1
  O  O35  4  0.49835152  0.65015115  0.27656735  1
