###############################################################################################
#
# CIF file generated by modified CIFWriter class 
# in pymatgen (v2025.03.10) https://pymatgen.org/
#
###############################################################################################
data_PBE+MBD_tight_45762bfcf71580a
_symmetry_space_group_name_H-M   P2_12_12_1
_cell_length_a   12.71466514
_cell_length_b   15.10037451
_cell_length_c   8.19380775
_cell_angle_alpha   90.00000000
_cell_angle_beta   90.00000000
_cell_angle_gamma   90.00000000
_symmetry_Int_Tables_number   19
_chemical_formula_moiety   'C6 H6 N12 O12'
_chemical_formula_sum   'H24 C24 N48 O48'
_cell_volume   1573.17999608
_cell_formula_units_Z   4
loop_
 _symmetry_equiv_pos_site_id
 _symmetry_equiv_pos_as_xyz
  1  'x, y, z'
  2  '-x, y+1/2, -z+1/2'
  3  '-x+1/2, -y, z+1/2'
  4  'x+1/2, -y+1/2, -z'
loop_
 _atom_site_type_symbol
 _atom_site_label
 _atom_site_symmetry_multiplicity
 _atom_site_fract_x
 _atom_site_fract_y
 _atom_site_fract_z
 _atom_site_occupancy
  H  H0  4  -0.10972701  0.18110795  0.39970841  1
  H  H1  4  -0.10574717  0.36316179  0.02723298  1
  H  H2  4  -0.10113654  0.21525665  -0.09718156  1
  H  H3  4  0.07082045  0.16926562  0.46833053  1
  H  H4  4  0.20826787  0.33776160  0.14937039  1
  H  H5  4  0.21162440  0.18899626  0.02960402  1
  C  C6  4  -0.06046721  0.20681505  0.30115596  1
  C  C7  4  -0.05295813  0.31742573  0.09060629  1
  C  C8  4  -0.05056108  0.22129398  0.01017356  1
  C  C9  4  0.06153385  0.19821443  0.34690753  1
  C  C10  4  0.13378734  0.30225464  0.16233805  1
  C  C11  4  0.13603406  0.20628760  0.08436349  1
  N  N12  4  -0.09696943  0.36169297  0.37628670  1
  N  N13  4  -0.09423670  0.07397380  0.13179291  1
  N  N14  4  -0.08901595  0.29666409  0.25574772  1
  N  N15  4  -0.08675996  0.16624607  0.14572739  1
  N  N16  4  0.05145943  0.35566970  0.09188372  1
  N  N17  4  0.05629908  0.20314099  -0.03974748  1
  N  N18  4  0.07546323  0.15343585  -0.18551911  1
  N  N19  4  0.07982604  0.41293758  -0.04047186  1
  N  N20  4  0.11027277  0.28631737  0.33427399  1
  N  N21  4  0.11429277  0.14615514  0.22114396  1
  N  N22  4  0.19055840  0.30878991  0.44991288  1
  N  N23  4  0.20459252  0.09388426  0.27909146  1
  O  O24  4  -0.10390589  0.03354663  0.26018909  1
  O  O25  4  -0.10126713  0.43801931  0.32835624  1
  O  O26  4  -0.10111172  0.33423266  0.51728376  1
  O  O27  4  -0.09341112  0.04457245  -0.00731564  1
  O  O28  4  0.00309207  0.15169142  -0.28336277  1
  O  O29  4  0.00714811  0.44747337  -0.11319728  1
  O  O30  4  0.16317398  0.12197747  -0.19962363  1
  O  O31  4  0.17411658  0.42244693  -0.06357775  1
  O  O32  4  0.17844767  0.27951421  0.58768087  1
  O  O33  4  0.19488560  0.06264094  0.41455075  1
  O  O34  4  0.22380557  0.91576737  0.68206914  1
  O  O35  4  0.23931835  0.64229650  0.90199469  1
