###############################################################################################
#
# CIF file generated by modified CIFWriter class 
# in pymatgen (v2025.03.10) https://pymatgen.org/
#
###############################################################################################
data_PBE+MBD_tight_47285a988293f2b
_symmetry_space_group_name_H-M   Pca2_1
_cell_length_a   11.70083109
_cell_length_b   13.84296213
_cell_length_c   9.87705831
_cell_angle_alpha   90.00000000
_cell_angle_beta   90.00000000
_cell_angle_gamma   90.00000000
_symmetry_Int_Tables_number   29
_chemical_formula_moiety   'C6 H6 N12 O12'
_chemical_formula_sum   'H24 C24 N48 O48'
_cell_volume   1599.82823986
_cell_formula_units_Z   4
loop_
 _symmetry_equiv_pos_site_id
 _symmetry_equiv_pos_as_xyz
  1  'x, y, z'
  2  '-x, -y, z+1/2'
  3  '-x+1/2, y, z+1/2'
  4  'x+1/2, -y, z'
loop_
 _atom_site_type_symbol
 _atom_site_label
 _atom_site_symmetry_multiplicity
 _atom_site_fract_x
 _atom_site_fract_y
 _atom_site_fract_z
 _atom_site_occupancy
  H  H0  4  -0.18556449  0.81936264  0.01109334  1
  H  H1  4  -0.09189933  0.56992536  0.20741059  1
  H  H2  4  -0.03727355  0.74084445  -0.11690402  1
  H  H3  4  0.04264569  0.63050358  0.37159297  1
  H  H4  4  0.05269548  0.91569460  0.29358630  1
  H  H5  4  0.20329185  0.84486071  0.15678990  1
  C  C6  4  -0.11686033  0.79273820  0.07588137  1
  C  C7  4  -0.06166669  0.64220661  0.18074498  1
  C  C8  4  -0.01838463  0.74287403  -0.00845088  1
  C  C9  4  0.02516699  0.85042032  0.24061294  1
  C  C10  4  0.02969978  0.68228736  0.28921907  1
  C  C11  4  0.12388791  0.80329362  0.15347252  1
  N  N12  4  -0.23405619  0.72479392  0.26258494  1
  N  N13  4  -0.15538130  0.71092390  0.16076647  1
  N  N14  4  -0.13719235  0.95597275  0.17628443  1
  N  N15  4  -0.06886676  0.87244185  0.15072124  1
  N  N16  4  -0.02307805  0.56414820  -0.04075597  1
  N  N17  4  -0.01094005  0.64472716  0.04741912  1
  N  N18  4  -0.00779455  0.77550431  0.33773879  1
  N  N19  4  -0.00559177  0.79631332  0.48047232  1
  N  N20  4  0.08535779  0.79604212  0.01500070  1
  N  N21  4  0.13684265  0.70955125  0.22255137  1
  N  N22  4  0.16314114  0.80968277  -0.09303481  1
  N  N23  4  0.20497734  0.63734897  0.16469841  1
  O  O24  4  -0.23889577  0.66205291  0.35088559  1
  O  O25  4  -0.21814882  0.96861604  0.10046644  1
  O  O26  4  -0.10493047  1.00766364  0.26870533  1
  O  O27  4  -0.05057956  0.48807006  0.01278852  1
  O  O28  4  -0.01426369  0.72659101  0.55461569  1
  O  O29  4  -0.00279401  0.88182049  0.51037631  1
  O  O30  4  0.00191113  0.57854146  -0.15912913  1
  O  O31  4  0.13107418  0.78224751  -0.20417366  1
  O  O32  4  0.19496333  0.55631554  0.21378689  1
  O  O33  4  0.20609967  0.20210686  0.25484861  1
  O  O34  4  0.23115248  0.66267928  0.57318043  1
  O  O35  4  0.24726138  0.85051074  0.43477536  1
