###############################################################################################
#
# CIF file generated by modified CIFWriter class 
# in pymatgen (v2025.03.10) https://pymatgen.org/
#
###############################################################################################
data_PBE+MBD_tight_4756c7716340c3a
_symmetry_space_group_name_H-M   Pca2_1
_cell_length_a   15.83971867
_cell_length_b   7.73179916
_cell_length_c   14.16482354
_cell_angle_alpha   90.00000000
_cell_angle_beta   90.00000000
_cell_angle_gamma   90.00000000
_symmetry_Int_Tables_number   29
_chemical_formula_moiety   'C6 H6 N12 O12'
_chemical_formula_sum   'H24 C24 N48 O48'
_cell_volume   1734.75919015
_cell_formula_units_Z   4
loop_
 _symmetry_equiv_pos_site_id
 _symmetry_equiv_pos_as_xyz
  1  'x, y, z'
  2  '-x, -y, z+1/2'
  3  '-x+1/2, y, z+1/2'
  4  'x+1/2, -y, z'
loop_
 _atom_site_type_symbol
 _atom_site_label
 _atom_site_symmetry_multiplicity
 _atom_site_fract_x
 _atom_site_fract_y
 _atom_site_fract_z
 _atom_site_occupancy
  H  H0  4  0.03083912  0.60803479  0.31294388  1
  H  H1  4  0.07475527  0.70426920  0.46987471  1
  H  H2  4  0.11385775  0.11260318  0.37601766  1
  H  H3  4  0.15655143  0.20526291  0.53214984  1
  H  H4  4  0.16623099  0.36904241  0.84832372  1
  H  H5  4  0.21142163  0.65689678  0.81599442  1
  C  C6  4  0.08667978  0.54016249  0.33917549  1
  C  C7  4  0.11408221  0.59998623  0.44184090  1
  C  C8  4  0.13620593  0.24621973  0.37626510  1
  C  C9  4  0.16314460  0.30753177  0.47934065  1
  C  C10  4  0.23227424  0.38702101  0.86788270  1
  C  C11  4  0.23686270  0.58033622  0.34533694  1
  N  N12  4  -0.01339895  0.29444654  0.34281609  1
  N  N13  4  0.07071859  0.35497259  0.33730510  1
  N  N14  4  0.09017622  0.48393490  0.60164692  1
  N  N15  4  0.10955562  0.45222994  0.50359091  1
  N  N16  4  0.16210483  0.58145887  0.28587128  1
  N  N17  4  0.16511262  0.59198559  0.18856852  1
  N  N18  4  0.18381761  0.26827548  1.02071446  1
  N  N19  4  0.20155685  0.65768153  0.43009389  1
  N  N20  4  0.21244815  0.26447689  0.31954104  1
  N  N21  4  0.22545009  0.82345366  0.45905476  1
  N  N22  4  0.24739457  0.35377530  0.96732052  1
  N  N23  4  0.24909242  0.10585912  0.28459598  1
  O  O24  4  -0.06847253  0.40491415  0.33518671  1
  O  O25  4  -0.02286006  0.13881271  0.35207263  1
  O  O26  4  0.06276860  0.62701723  0.62013309  1
  O  O27  4  0.09719601  0.58660400  0.14728082  1
  O  O28  4  0.09998076  0.36110817  0.65436788  1
  O  O29  4  0.11249852  0.27122657  0.98771475  1
  O  O30  4  0.17271048  0.90483567  0.50485512  1
  O  O31  4  0.17625468  0.10924182  0.76608356  1
  O  O32  4  0.19910217  -0.01339880  0.27324554  1
  O  O33  4  0.20294470  0.86939449  0.93886476  1
  O  O34  4  0.20647405  0.20858772  1.09634075  1
  O  O35  4  0.23580644  0.60799286  0.15382155  1
