###############################################################################################
#
# CIF file generated by modified CIFWriter class 
# in pymatgen (v2025.03.10) https://pymatgen.org/
#
###############################################################################################
data_PBE+MBD_tight_4fbbec3f35f2427
_symmetry_space_group_name_H-M   P2_12_12_1
_cell_length_a   9.00703005
_cell_length_b   13.90596102
_cell_length_c   12.77278456
_cell_angle_alpha   90.00000000
_cell_angle_beta   90.00000000
_cell_angle_gamma   90.00000000
_symmetry_Int_Tables_number   19
_chemical_formula_moiety   'C6 H6 N12 O12'
_chemical_formula_sum   'H24 C24 N48 O48'
_cell_volume   1599.80925984
_cell_formula_units_Z   4
loop_
 _symmetry_equiv_pos_site_id
 _symmetry_equiv_pos_as_xyz
  1  'x, y, z'
  2  '-x, y+1/2, -z+1/2'
  3  'x+1/2, -y+1/2, -z'
  4  '-x+1/2, -y, z+1/2'
loop_
 _atom_site_type_symbol
 _atom_site_label
 _atom_site_symmetry_multiplicity
 _atom_site_fract_x
 _atom_site_fract_y
 _atom_site_fract_z
 _atom_site_occupancy
  H  H0  4  0.05027680  0.20413498  0.16048293  1
  H  H1  4  0.06088320  0.76479709  0.95070032  1
  H  H2  4  0.08454728  0.55270693  0.73623167  1
  H  H3  4  0.13792541  0.90141706  0.85536697  1
  H  H4  4  0.18433763  0.44619395  0.32852311  1
  H  H5  4  0.21961940  0.79030056  0.56356648  1
  C  C6  4  0.11913470  0.74326648  0.87952345  1
  C  C7  4  0.12741981  0.62574673  0.74586801  1
  C  C8  4  0.14228229  0.23173442  0.20762754  1
  C  C9  4  0.17114113  0.83541247  0.81522608  1
  C  C10  4  0.20756458  0.76592650  0.64449932  1
  C  C11  4  0.22048992  0.37356679  0.30800955  1
  N  N12  4  -0.08672484  0.62789201  0.86834520  1
  N  N13  4  -0.04225329  0.33847426  0.28198834  1
  N  N14  4  -0.02613850  0.85679728  0.68095541  1
  N  N15  4  0.02527896  0.68288422  0.81212216  1
  N  N16  4  0.05553323  0.64003693  0.56073339  1
  N  N17  4  0.09342320  0.07613237  0.29706334  1
  N  N18  4  0.10829729  0.32770008  0.24426606  1
  N  N19  4  0.11837037  0.83315837  0.70705661  1
  N  N20  4  0.14930323  0.66905918  0.64504994  1
  N  N21  4  0.17006460  0.16733882  0.29732404  1
  N  N22  4  0.22982878  0.62574476  0.99896363  1
  N  N23  4  0.24605166  0.68160247  0.90379661  1
  O  O24  4  -0.14134974  0.66781346  0.94395025  1
  O  O25  4  -0.13699232  0.29437755  0.23385016  1
  O  O26  4  -0.11924292  0.54985902  0.83153123  1
  O  O27  4  -0.10035753  0.89489949  0.75044843  1
  O  O28  4  -0.06428037  0.84023261  0.59056714  1
  O  O29  4  -0.05859148  0.39250681  0.35630912  1
  O  O30  4  -0.03573195  0.57757942  0.57988264  1
  O  O31  4  -0.01991981  0.07306338  0.24516310  1
  O  O32  4  0.08042328  0.67897740  0.47684181  1
  O  O33  4  0.14532486  0.01391491  0.35361642  1
  O  O34  4  0.15657021  0.66289869  1.06833942  1
  O  O35  4  0.20283479  0.45033201  0.50214268  1
