###############################################################################################
#
# CIF file generated by modified CIFWriter class 
# in pymatgen (v2025.03.10) https://pymatgen.org/
#
###############################################################################################
data_PBE+MBD_tight_4fbfbafc8d3a571
_symmetry_space_group_name_H-M   P2_12_12_1
_cell_length_a   13.87571496
_cell_length_b   14.92698090
_cell_length_c   7.82717834
_cell_angle_alpha   90.00000000
_cell_angle_beta   90.00000000
_cell_angle_gamma   90.00000000
_symmetry_Int_Tables_number   19
_chemical_formula_moiety   'C6 H6 N12 O12'
_chemical_formula_sum   'H24 C24 N48 O48'
_cell_volume   1621.18499823
_cell_formula_units_Z   4
loop_
 _symmetry_equiv_pos_site_id
 _symmetry_equiv_pos_as_xyz
  1  'x, y, z'
  2  '-x, y+1/2, -z+1/2'
  3  '-x+1/2, -y, z+1/2'
  4  'x+1/2, -y+1/2, -z'
loop_
 _atom_site_type_symbol
 _atom_site_label
 _atom_site_symmetry_multiplicity
 _atom_site_fract_x
 _atom_site_fract_y
 _atom_site_fract_z
 _atom_site_occupancy
  H  H0  4  -0.15328191  0.89469265  0.09250201  1
  H  H1  4  -0.11783976  0.84684392  -0.19010969  1
  H  H2  4  0.09394455  1.01455512  0.23807148  1
  H  H3  4  0.10114785  0.86116859  0.33505149  1
  H  H4  4  0.15816003  0.92938856  -0.25590143  1
  H  H5  4  0.16392127  0.77521053  -0.15793501  1
  C  C6  4  -0.07557770  0.89394131  0.07045238  1
  C  C7  4  -0.05147803  0.86138003  -0.12003526  1
  C  C8  4  0.07009649  0.96739629  0.14019229  1
  C  C9  4  0.07489872  0.86641135  0.20399818  1
  C  C10  4  0.10814155  0.91693094  -0.15068122  1
  C  C11  4  0.11230641  0.81611052  -0.08646387  1
  N  N12  4  -0.08488053  1.04568910  0.19832857  1
  N  N13  4  -0.07338158  0.80215778  0.33588718  1
  N  N14  4  -0.03187003  0.98133073  0.09941587  1
  N  N15  4  -0.02509360  0.83590292  0.19026792  1
  N  N16  4  -0.01263292  0.95539831  -0.37198978  1
  N  N17  4  -0.00726539  0.70282586  -0.19091802  1
  N  N18  4  0.00807058  0.92845999  -0.20475390  1
  N  N19  4  0.01368641  0.78521115  -0.11336243  1
  N  N20  4  0.12935903  0.97588987  -0.01005078  1
  N  N21  4  0.13801903  0.81721345  0.09217741  1
  N  N22  4  0.19455193  1.04679805  -0.02893639  1
  N  N23  4  0.19649852  0.74767101  0.16053431  1
  O  O24  4  -0.17193628  1.03579898  0.20193276  1
  O  O25  4  -0.16080973  0.79645088  0.32596794  1
  O  O26  4  -0.09673120  0.95058077  -0.41703423  1
  O  O27  4  -0.09254425  0.68740868  -0.21780397  1
  O  O28  4  -0.03696579  1.10618547  0.26081117  1
  O  O29  4  -0.02120666  0.77849790  0.45423804  1
  O  O30  4  0.05586474  0.98428894  -0.45565109  1
  O  O31  4  0.06163835  0.65352719  -0.21828798  1
  O  O32  4  0.20204921  1.09852666  0.09162988  1
  O  O33  4  0.20281479  0.74385549  0.31518164  1
  O  O34  4  0.23772470  0.70102126  0.05446525  1
  O  O35  4  0.24004093  1.04863572  -0.16312967  1
