###############################################################################################
#
# CIF file generated by modified CIFWriter class 
# in pymatgen (v2025.03.10) https://pymatgen.org/
#
###############################################################################################
data_PBE+MBD_tight_51183070816409d
_symmetry_space_group_name_H-M   Pna2_1
_cell_length_a   16.42794308
_cell_length_b   7.95642969
_cell_length_c   11.78001983
_cell_angle_alpha   90.00000000
_cell_angle_beta   90.00000000
_cell_angle_gamma   90.00000000
_symmetry_Int_Tables_number   33
_chemical_formula_moiety   'C6 H6 N12 O12'
_chemical_formula_sum   'H24 C24 N48 O48'
_cell_volume   1539.74017129
_cell_formula_units_Z   4
loop_
 _symmetry_equiv_pos_site_id
 _symmetry_equiv_pos_as_xyz
  1  'x, y, z'
  2  '-x, -y, z+1/2'
  3  '-x+1/2, y+1/2, z+1/2'
  4  'x+1/2, -y+1/2, z'
loop_
 _atom_site_type_symbol
 _atom_site_label
 _atom_site_symmetry_multiplicity
 _atom_site_fract_x
 _atom_site_fract_y
 _atom_site_fract_z
 _atom_site_occupancy
  H  H0  4  -0.00671430  0.52237035  0.04915884  1
  H  H1  4  0.03410276  1.01815164  0.14499952  1
  H  H2  4  0.09524489  0.46433674  0.35717663  1
  H  H3  4  0.12458206  0.74721743  0.41266443  1
  H  H4  4  0.13778601  0.48471382  0.01856123  1
  H  H5  4  0.17981573  0.97848087  0.11267077  1
  C  C6  4  0.02968362  0.59742228  0.10787124  1
  C  C7  4  0.05472525  0.89087570  0.16445826  1
  C  C8  4  0.09406179  0.54901976  0.28423811  1
  C  C9  4  0.11251138  0.73907513  0.32155458  1
  C  C10  4  0.12473408  0.57190555  0.08820294  1
  C  C11  4  0.14943709  0.86470595  0.14329178  1
  N  N12  4  -0.06458047  0.82035220  0.04441909  1
  N  N13  4  -0.03650015  0.40234634  0.24542036  1
  N  N14  4  -0.02569451  0.85787184  0.34353762  1
  N  N15  4  0.01104883  0.77314637  0.09371477  1
  N  N16  4  0.01572798  0.54352007  0.22509551  1
  N  N17  4  0.04816565  0.85280138  0.28630654  1
  N  N18  4  0.15371154  0.50026920  0.19797084  1
  N  N19  4  0.16161735  0.72999309  0.06342221  1
  N  N20  4  0.16684076  0.31921454  0.18981722  1
  N  N21  4  0.17673836  0.81618738  0.25594338  1
  N  N22  4  0.20817485  0.75341275  -0.03700830  1
  N  N23  4  0.24180936  0.30554282  0.78562720  1
  O  O24  4  -0.10631134  0.70555464  0.00777051  1
  O  O25  4  -0.07900660  0.97072692  0.04041891  1
  O  O26  4  -0.07794399  0.94860957  0.30234671  1
  O  O27  4  -0.07632745  0.35082746  0.16547250  1
  O  O28  4  -0.03824242  0.35322195  0.34389835  1
  O  O29  4  -0.02949092  0.77490221  0.43182848  1
  O  O30  4  0.13287839  0.23027041  0.26012040  1
  O  O31  4  0.19355100  0.35843302  0.71436052  1
  O  O32  4  0.21230606  0.27535391  0.11401169  1
  O  O33  4  0.21987422  0.62788246  -0.09423081  1
  O  O34  4  0.22710027  0.24808925  0.87949379  1
  O  O35  4  0.23051866  0.89674364  -0.05587698  1
