###############################################################################################
#
# CIF file generated by modified CIFWriter class 
# in pymatgen (v2025.03.10) https://pymatgen.org/
#
###############################################################################################
data_PBE+MBD_tight_522d2012e06ae3d
_symmetry_space_group_name_H-M   P2_12_12_1
_cell_length_a   17.22918980
_cell_length_b   7.81954121
_cell_length_c   12.24148549
_cell_angle_alpha   90.00000000
_cell_angle_beta   90.00000000
_cell_angle_gamma   90.00000000
_symmetry_Int_Tables_number   19
_chemical_formula_moiety   'C6 H6 N12 O12'
_chemical_formula_sum   'H24 C24 N48 O48'
_cell_volume   1649.22629353
_cell_formula_units_Z   4
loop_
 _symmetry_equiv_pos_site_id
 _symmetry_equiv_pos_as_xyz
  1  'x, y, z'
  2  'x+1/2, -y+1/2, -z'
  3  '-x, y+1/2, -z+1/2'
  4  '-x+1/2, -y, z+1/2'
loop_
 _atom_site_type_symbol
 _atom_site_label
 _atom_site_symmetry_multiplicity
 _atom_site_fract_x
 _atom_site_fract_y
 _atom_site_fract_z
 _atom_site_occupancy
  H  H0  4  0.03024354  1.01608215  1.05673453  1
  H  H1  4  0.04533421  0.52809769  1.15910024  1
  H  H2  4  0.06679056  0.99563398  0.86814136  1
  H  H3  4  0.10222097  0.48032747  0.83025971  1
  H  H4  4  0.17049885  0.65060052  1.19460987  1
  H  H5  4  0.22720778  0.61384782  0.86601373  1
  C  C6  4  0.06010261  0.89572363  1.03995238  1
  C  C7  4  0.06610566  0.60436799  1.09032664  1
  C  C8  4  0.08344027  0.88050946  0.91272363  1
  C  C9  4  0.09946619  0.57621691  0.89519330  1
  C  C10  4  0.14780148  0.68758494  1.11460845  1
  C  C11  4  0.18131823  0.66246160  0.91936315  1
  N  N12  4  -0.04178464  0.78008762  1.15999653  1
  N  N13  4  -0.02638244  0.71167253  0.84262383  1
  N  N14  4  0.01283049  0.74943583  1.07103022  1
  N  N15  4  0.02820586  0.34487887  0.99033259  1
  N  N16  4  0.05286290  0.72548303  0.86254229  1
  N  N17  4  0.07277231  0.49744767  0.99527007  1
  N  N18  4  0.12750581  0.86982370  1.11085284  1
  N  N19  4  0.16467119  0.84182995  0.90028746  1
  N  N20  4  0.18538764  0.99531270  1.11661011  1
  N  N21  4  0.20338171  0.63749276  1.03238241  1
  N  N22  4  0.22177058  0.96193024  0.87389145  1
  N  N23  4  0.23583027  0.47761525  0.56054979  1
  O  O24  4  -0.06705449  0.92544943  1.16723270  1
  O  O25  4  -0.06342379  0.84563674  0.84537440  1
  O  O26  4  -0.05918523  0.65566614  1.21409916  1
  O  O27  4  -0.05056155  0.56768539  0.82192765  1
  O  O28  4  -0.00674660  0.30502146  1.07338773  1
  O  O29  4  0.03184304  0.26466516  0.90492772  1
  O  O30  4  0.16539622  1.14035893  1.09050262  1
  O  O31  4  0.19707069  0.53193552  0.48477846  1
  O  O32  4  0.19994441  1.10915730  0.86170460  1
  O  O33  4  0.21214004  0.09525710  0.36716647  1
  O  O34  4  0.22818730  0.50814392  0.65795350  1
  O  O35  4  0.24910869  0.94797468  1.14861199  1
