###############################################################################################
#
# CIF file generated by modified CIFWriter class 
# in pymatgen (v2025.03.10) https://pymatgen.org/
#
###############################################################################################
data_PBE+MBD_tight_536b898dc689a76
_symmetry_space_group_name_H-M   P2_12_12_1
_cell_length_a   7.92827670
_cell_length_b   17.60727090
_cell_length_c   11.06292958
_cell_angle_alpha   90.00000000
_cell_angle_beta   90.00000000
_cell_angle_gamma   90.00000000
_symmetry_Int_Tables_number   19
_chemical_formula_moiety   'C6 H6 N12 O12'
_chemical_formula_sum   'H24 C24 N48 O48'
_cell_volume   1544.33314569
_cell_formula_units_Z   4
loop_
 _symmetry_equiv_pos_site_id
 _symmetry_equiv_pos_as_xyz
  1  'x, y, z'
  2  '-x, y+1/2, -z+1/2'
  3  'x+1/2, -y+1/2, -z'
  4  '-x+1/2, -y, z+1/2'
loop_
 _atom_site_type_symbol
 _atom_site_label
 _atom_site_symmetry_multiplicity
 _atom_site_fract_x
 _atom_site_fract_y
 _atom_site_fract_z
 _atom_site_occupancy
  H  H0  4  -0.12851485  -0.00293754  0.27706169  1
  H  H1  4  -0.02227078  0.17738459  0.49760045  1
  H  H2  4  -0.00033316  0.16846961  0.03628135  1
  H  H3  4  0.05488725  0.27605098  0.35776264  1
  H  H4  4  0.16561574  -0.01473909  0.33707213  1
  H  H5  4  0.20856354  0.84324414  0.59527658  1
  C  C6  4  -0.06041944  0.05105006  0.27350639  1
  C  C7  4  0.00904493  0.15392807  0.40882350  1
  C  C8  4  0.01391884  0.15278814  0.13153901  1
  C  C9  4  0.06029599  0.22007215  0.31524722  1
  C  C10  4  0.13078709  0.04349466  0.31349016  1
  C  C11  4  0.20631370  0.14564996  0.17104385  1
  N  N12  4  -0.17042618  0.04653330  0.06297098  1
  N  N13  4  -0.12460013  0.10538224  0.36261273  1
  N  N14  4  -0.10787061  0.28154952  0.15311717  1
  N  N15  4  -0.06678359  0.08116987  0.15244290  1
  N  N16  4  -0.05200816  0.21371088  0.21090290  1
  N  N17  4  0.13611666  0.09482368  0.41721152  1
  N  N18  4  0.14543730  0.97696766  0.65881489  1
  N  N19  4  0.15062866  0.73913356  0.75306718  1
  N  N20  4  0.20999500  0.36995566  0.64358616  1
  N  N21  4  0.21717368  0.89450801  0.98253231  1
  N  N22  4  0.22592654  0.20246894  0.26610377  1
  N  N23  4  0.23799124  0.07081004  0.21740461  1
  O  O24  4  -0.22828820  -0.01530880  0.08919279  1
  O  O25  4  -0.18617042  0.08156855  -0.03192295  1
  O  O26  4  -0.18237396  0.27133479  0.05740383  1
  O  O27  4  -0.08371143  0.34155442  0.20532041  1
  O  O28  4  0.03501026  0.75283321  0.68336603  1
  O  O29  4  0.07575749  0.95006617  0.56964930  1
  O  O30  4  0.11718542  0.40733889  0.70940382  1
  O  O31  4  0.11749195  0.94789059  0.98188614  1
  O  O32  4  0.12632601  1.04019442  0.70192451  1
  O  O33  4  0.16902857  0.68340008  0.81748230  1
  O  O34  4  0.17256501  0.31454791  0.58210167  1
  O  O35  4  0.20406407  0.83386790  1.03611324  1
