###############################################################################################
#
# CIF file generated by modified CIFWriter class 
# in pymatgen (v2025.03.10) https://pymatgen.org/
#
###############################################################################################
data_PBE+MBD_tight_56f3650b40df9e2
_symmetry_space_group_name_H-M   P2_1/c
_cell_length_a   11.58348086
_cell_length_b   12.22500208
_cell_length_c   12.63522022
_cell_angle_alpha   90.00000000
_cell_angle_beta   109.51984445
_cell_angle_gamma   90.00000000
_symmetry_Int_Tables_number   14
_chemical_formula_moiety   'C6 H6 N12 O12'
_chemical_formula_sum   'H24 C24 N48 O48'
_cell_volume   1686.41361254
_cell_formula_units_Z   4
loop_
 _symmetry_equiv_pos_site_id
 _symmetry_equiv_pos_as_xyz
  1  'x, y, z'
  2  '-x, -y, -z'
  3  '-x, y+1/2, -z+1/2'
  4  'x, -y+1/2, z+1/2'
loop_
 _atom_site_type_symbol
 _atom_site_label
 _atom_site_symmetry_multiplicity
 _atom_site_fract_x
 _atom_site_fract_y
 _atom_site_fract_z
 _atom_site_occupancy
  H  H0  4  -0.00371567  0.78180193  0.74716520  1
  H  H1  4  0.06577745  0.44284185  0.09331073  1
  H  H2  4  0.15889581  0.73528735  0.67557258  1
  H  H3  4  0.20820626  0.34650960  0.24241286  1
  H  H4  4  0.24587217  0.54392101  0.50760178  1
  H  H5  4  0.40535194  0.59074825  0.43385853  1
  C  C6  4  0.06490166  0.84631916  0.76160624  1
  C  C7  4  0.10636520  0.49780210  0.16424277  1
  C  C8  4  0.17139417  0.81618687  0.71453546  1
  C  C9  4  0.20221796  1.06794249  0.76515958  1
  C  C10  4  0.21185142  0.95003610  0.91589413  1
  C  C11  4  0.31714956  0.91903306  0.86719318  1
  N  N12  4  -0.07955072  0.49675661  0.21945174  1
  N  N13  4  0.01379104  0.55455659  0.19763534  1
  N  N14  4  0.05411490  0.83565874  0.95261072  1
  N  N15  4  0.11779214  0.86755575  0.88056915  1
  N  N16  4  0.15809606  0.90463565  0.63154332  1
  N  N17  4  0.16681790  0.44291114  0.36587487  1
  N  N18  4  0.19811617  1.15064717  0.94252344  1
  N  N19  4  0.23944959  0.91409964  0.57166548  1
  N  N20  4  0.28623209  0.68001750  0.30436620  1
  N  N21  4  0.32060472  0.48719147  0.29467752  1
  N  N22  4  0.37603014  0.76507585  0.31974133  1
  N  N23  4  0.42791597  1.08157621  0.83087660  1
  O  O24  4  -0.13803184  0.54696295  0.26780340  1
  O  O25  4  -0.09423519  1.09813080  0.68503711  1
  O  O26  4  -0.02061999  0.76194137  0.92005629  1
  O  O27  4  0.08274604  0.61729610  0.54368600  1
  O  O28  4  0.18148886  0.26003928  0.39667023  1
  O  O29  4  0.23058792  1.13018547  1.04217145  1
  O  O30  4  0.24652296  0.49525390  0.03288752  1
  O  O31  4  0.29172806  0.67047527  0.06150296  1
  O  O32  4  0.34343457  0.65530092  0.75955049  1
  O  O33  4  0.41498362  0.32444504  0.29768122  1
  O  O34  4  0.47392700  0.74847490  0.39334365  1
  O  O35  4  0.47751590  -0.03550830  0.11296360  1
