###############################################################################################
#
# CIF file generated by modified CIFWriter class 
# in pymatgen (v2025.03.10) https://pymatgen.org/
#
###############################################################################################
data_PBE+MBD_tight_574697937c603f7
_symmetry_space_group_name_H-M   P2/c
_cell_length_a   17.29184079
_cell_length_b   7.97285919
_cell_length_c   14.33572623
_cell_angle_alpha   90.00000000
_cell_angle_beta   90.00000000
_cell_angle_gamma   89.24867512
_symmetry_Int_Tables_number   13
_chemical_formula_moiety   'C6 H6 N12 O12'
_chemical_formula_sum   'H24 C24 N48 O48'
_cell_volume   1976.23087726
_cell_formula_units_Z   4
loop_
 _symmetry_equiv_pos_site_id
 _symmetry_equiv_pos_as_xyz
  1  'x, y, z'
  2  '-x, -y, -z'
  3  '-x+1/2, -y, z'
  4  'x+1/2, y, -z'
loop_
 _atom_site_type_symbol
 _atom_site_label
 _atom_site_symmetry_multiplicity
 _atom_site_fract_x
 _atom_site_fract_y
 _atom_site_fract_z
 _atom_site_occupancy
  H  H0  4  -0.05235286  0.78667093  0.62351850  1
  H  H1  4  -0.04236871  0.60685830  0.89417757  1
  H  H2  4  -0.03145887  0.50723240  0.56557000  1
  H  H3  4  -0.02077251  0.32455033  0.83616915  1
  H  H4  4  0.17775448  0.67491124  0.66046227  1
  H  H5  4  0.18105662  0.56903287  0.81594535  1
  C  C6  4  -0.01495143  0.71147556  0.66914356  1
  C  C7  4  -0.00932246  0.60406212  0.82923776  1
  C  C8  4  -0.00051181  0.52735077  0.63071603  1
  C  C9  4  0.00516422  0.41936995  0.79117342  1
  C  C10  4  0.12002417  0.63950550  0.68369880  1
  C  C11  4  0.12226798  0.56867093  0.78810153  1
  N  N12  4  -0.11084821  0.81605025  0.78676740  1
  N  N13  4  -0.09929390  0.33145853  0.68496485  1
  N  N14  4  -0.05023433  0.69806739  0.75957424  1
  N  N15  4  -0.02488212  0.40317327  0.69738857  1
  N  N16  4  0.06416455  0.77479015  0.67149374  1
  N  N17  4  0.06931987  0.66897568  0.84635685  1
  N  N18  4  0.08040640  0.93852159  0.69674970  1
  N  N19  4  0.08356136  0.52336467  0.61908346  1
  N  N20  4  0.08920826  0.40131313  0.78844578  1
  N  N21  4  0.09125532  0.67649548  0.94455866  1
  N  N22  4  0.12167458  0.37829218  0.58955320  1
  N  N23  4  0.12625714  0.27582197  0.84696502  1
  O  O24  4  -0.14205213  0.89075773  0.72297409  1
  O  O25  4  -0.12746828  0.26504165  0.75328303  1
  O  O26  4  -0.12641611  0.34145999  0.60612299  1
  O  O27  4  -0.12522327  0.82100158  0.86986699  1
  O  O28  4  0.02454612  1.03522035  0.69784696  1
  O  O29  4  0.03771791  0.69672993  0.99953732  1
  O  O30  4  0.08303993  0.28225962  0.54193679  1
  O  O31  4  0.08482149  0.16726416  0.87802616  1
  O  O32  4  0.14822314  0.97000140  0.71299899  1
  O  O33  4  0.15996086  0.66918250  0.96158077  1
  O  O34  4  0.18986283  0.36377802  0.61124732  1
  O  O35  4  0.19615248  0.28918565  0.85473047  1
