###############################################################################################
#
# CIF file generated by modified CIFWriter class 
# in pymatgen (v2025.03.10) https://pymatgen.org/
#
###############################################################################################
data_PBE+MBD_tight_57d16fdb0805882
_symmetry_space_group_name_H-M   Pca2_1
_cell_length_a   15.23329958
_cell_length_b   7.65933928
_cell_length_c   14.53276867
_cell_angle_alpha   90.00000000
_cell_angle_beta   90.00000000
_cell_angle_gamma   90.00000000
_symmetry_Int_Tables_number   29
_chemical_formula_moiety   'C6 H6 N12 O12'
_chemical_formula_sum   'H24 C24 N48 O48'
_cell_volume   1695.63999326
_cell_formula_units_Z   4
loop_
 _symmetry_equiv_pos_site_id
 _symmetry_equiv_pos_as_xyz
  1  'x, y, z'
  2  '-x, -y, z+1/2'
  3  '-x+1/2, y, z+1/2'
  4  'x+1/2, -y, z'
loop_
 _atom_site_type_symbol
 _atom_site_label
 _atom_site_symmetry_multiplicity
 _atom_site_fract_x
 _atom_site_fract_y
 _atom_site_fract_z
 _atom_site_occupancy
  H  H0  4  0.03466781  0.53920719  0.33609478  1
  H  H1  4  0.10579585  0.61215800  0.60679978  1
  H  H2  4  0.13827556  0.05999764  0.41027141  1
  H  H3  4  0.15880815  0.32752185  0.64764765  1
  H  H4  4  0.18226310  0.66571401  0.34000289  1
  H  H5  4  0.21514382  0.18294682  0.91510993  1
  C  C6  4  0.07706296  0.47997121  0.38824848  1
  C  C7  4  0.12108160  0.53462370  0.54564979  1
  C  C8  4  0.13821952  0.19637738  0.43228515  1
  C  C9  4  0.15878781  0.34598493  0.57315628  1
  C  C10  4  0.17280234  0.56176079  0.39060010  1
  C  C11  4  0.23432591  0.27685723  0.43543276  1
  N  N12  4  -0.03274066  0.45532812  0.51433699  1
  N  N13  4  0.03165093  0.21023017  0.30351191  1
  N  N14  4  0.04653040  0.52069739  0.48243216  1
  N  N15  4  0.08426546  0.05676951  0.57613842  1
  N  N16  4  0.08500986  0.29640765  0.37048662  1
  N  N17  4  0.10664036  0.21303140  0.52700983  1
  N  N18  4  0.18041825  0.62467410  0.48433889  1
  N  N19  4  0.18710865  0.24224354  1.08454711  1
  N  N20  4  0.19769345  0.44509232  0.80843656  1
  N  N21  4  0.22787819  0.77211933  0.50726339  1
  N  N22  4  0.23632769  0.42516421  0.37470309  1
  N  N23  4  0.24576723  0.32758016  0.53227135  1
  O  O24  4  -0.08636334  0.41298173  0.45519891  1
  O  O25  4  -0.04217906  0.45029277  0.59814193  1
  O  O26  4  -0.01391796  0.30488557  0.25614263  1
  O  O27  4  0.03973418  0.05202227  0.30009170  1
  O  O28  4  0.06181293  -0.06620681  0.52756933  1
  O  O29  4  0.08596741  0.06535980  0.65944428  1
  O  O30  4  0.12589163  0.18291583  1.04056023  1
  O  O31  4  0.14247125  0.32896631  0.80446922  1
  O  O32  4  0.19586398  0.24635803  1.16824528  1
  O  O33  4  0.20315460  0.57400797  0.75896891  1
  O  O34  4  0.23378337  0.80729475  0.58914384  1
  O  O35  4  0.24041281  0.85359551  0.94205412  1
