###############################################################################################
#
# CIF file generated by modified CIFWriter class 
# in pymatgen (v2025.03.10) https://pymatgen.org/
#
###############################################################################################
data_PBE+MBD_tight_58b8ecf720c42a6
_symmetry_space_group_name_H-M   P2_1/c
_cell_length_a   8.10659511
_cell_length_b   12.77371012
_cell_length_c   15.77886713
_cell_angle_alpha   90.00000000
_cell_angle_beta   80.90083166
_cell_angle_gamma   90.00000000
_symmetry_Int_Tables_number   14
_chemical_formula_moiety   'C6 H6 N12 O12'
_chemical_formula_sum   'H24 C24 N48 O48'
_cell_volume   1613.36103216
_cell_formula_units_Z   4
loop_
 _symmetry_equiv_pos_site_id
 _symmetry_equiv_pos_as_xyz
  1  'x, y, z'
  2  '-x, -y, -z'
  3  '-x, y+1/2, -z+1/2'
  4  'x, -y+1/2, z+1/2'
loop_
 _atom_site_type_symbol
 _atom_site_label
 _atom_site_symmetry_multiplicity
 _atom_site_fract_x
 _atom_site_fract_y
 _atom_site_fract_z
 _atom_site_occupancy
  H  H0  4  0.19626878  0.75643195  0.22143462  1
  H  H1  4  0.35068168  0.03150024  0.39647351  1
  H  H2  4  0.37225431  0.51277687  0.06128986  1
  H  H3  4  0.40015507  0.22781886  1.06245576  1
  H  H4  4  0.46850497  0.72481152  0.76495194  1
  H  H5  4  0.49343715  0.91010360  0.03200428  1
  C  C6  4  0.29856510  0.76151269  0.66935636  1
  C  C7  4  0.40376590  0.90603824  0.57392065  1
  C  C8  4  0.41768606  0.10561602  0.39756898  1
  C  C9  4  0.45151165  0.25877061  0.99924699  1
  C  C10  4  0.47701299  0.83448667  0.06444858  1
  C  C11  4  0.47709279  0.74968835  0.69815769  1
  N  N12  4  0.14201702  0.93039905  0.67795440  1
  N  N13  4  0.17216071  0.28585472  0.95894518  1
  N  N14  4  0.18475652  0.60055924  0.60854390  1
  N  N15  4  0.27831714  0.86613139  0.63970719  1
  N  N16  4  0.29723317  0.82761663  0.44784589  1
  N  N17  4  0.30314557  0.81284618  0.09825417  1
  N  N18  4  0.33192249  0.32470721  0.96464388  1
  N  N19  4  0.34406251  0.11340930  0.25156870  1
  N  N20  4  0.39722476  0.07324715  0.82278531  1
  N  N21  4  0.42645938  0.84127172  0.49546066  1
  N  N22  4  0.43812859  0.16968721  0.86017841  1
  N  N23  4  0.43958997  0.34896913  0.81318093  1
  O  O24  4  0.05527126  0.60695322  0.24061678  1
  O  O25  4  0.05584496  0.88283677  0.15743905  1
  O  O26  4  0.09632263  0.16643403  0.40983829  1
  O  O27  4  0.12525535  0.28908768  0.50449919  1
  O  O28  4  0.12916850  0.48510149  0.14383598  1
  O  O29  4  0.19059623  0.60352646  -0.04427795  1
  O  O30  4  0.22454767  0.97559763  0.06365017  1
  O  O31  4  0.28964662  0.02449587  0.26309743  1
  O  O32  4  0.30765714  0.75085966  0.40043654  1
  O  O33  4  0.33100403  0.32776491  0.69208753  1
  O  O34  4  0.37672290  0.42194772  0.24762531  1
  O  O35  4  0.37974855  0.50307036  0.36986039  1
