###############################################################################################
#
# CIF file generated by modified CIFWriter class 
# in pymatgen (v2025.03.10) https://pymatgen.org/
#
###############################################################################################
data_PBE+MBD_tight_5a616b99acaae63
_symmetry_space_group_name_H-M   P2_1/c
_cell_length_a   8.72989398
_cell_length_b   12.67525343
_cell_length_c   16.53820971
_cell_angle_alpha   90.00000000
_cell_angle_beta   121.35308021
_cell_angle_gamma   90.00000000
_symmetry_Int_Tables_number   14
_chemical_formula_moiety   'C6 H6 N12 O12'
_chemical_formula_sum   'H24 C24 N48 O48'
_cell_volume   1562.78910655
_cell_formula_units_Z   4
loop_
 _symmetry_equiv_pos_site_id
 _symmetry_equiv_pos_as_xyz
  1  'x, y, z'
  2  '-x, -y, -z'
  3  '-x, y+1/2, -z+1/2'
  4  'x, -y+1/2, z+1/2'
loop_
 _atom_site_type_symbol
 _atom_site_label
 _atom_site_symmetry_multiplicity
 _atom_site_fract_x
 _atom_site_fract_y
 _atom_site_fract_z
 _atom_site_occupancy
  H  H0  4  -0.15665782  0.27410112  0.48933288  1
  H  H1  4  -0.04473920  0.09920805  0.72621217  1
  H  H2  4  0.09075100  0.19173993  0.48729236  1
  H  H3  4  0.19898473  0.01226858  0.72179881  1
  H  H4  4  0.30464721  0.08964891  0.19380779  1
  H  H5  4  0.37445869  0.19155487  0.33197452  1
  C  C6  4  -0.04513377  0.24540959  0.06037707  1
  C  C7  4  0.02126825  0.15070433  0.70043720  1
  C  C8  4  0.11681640  0.29974860  0.05914331  1
  C  C9  4  0.18130558  0.40547533  0.19858897  1
  C  C10  4  0.23247734  0.16482035  0.17457259  1
  C  C11  4  0.27738435  0.26776460  0.76681714  1
  N  N12  4  -0.29476901  0.17117113  0.56867018  1
  N  N13  4  -0.10774029  0.18588032  0.60647873  1
  N  N14  4  -0.03891276  0.44937951  0.58121108  1
  N  N15  4  0.01750404  0.18162097  0.27658422  1
  N  N16  4  0.03803033  0.15025429  0.11666481  1
  N  N17  4  0.11573205  0.26087195  0.26661358  1
  N  N18  4  0.14538774  0.40197533  0.10269534  1
  N  N19  4  0.20711980  0.48559701  0.06971993  1
  N  N20  4  0.27137612  0.22989049  0.11443711  1
  N  N21  4  0.33401200  0.16066746  0.76432212  1
  N  N22  4  0.34124574  0.17429831  0.06282650  1
  N  N23  4  0.49573461  0.64150524  0.72065936  1
  O  O24  4  -0.39361624  0.28710731  -0.00793654  1
  O  O25  4  -0.33598354  0.38287026  0.11526944  1
  O  O26  4  -0.19417951  0.05070661  0.01436679  1
  O  O27  4  -0.13528216  0.29586948  0.75577122  1
  O  O28  4  0.05439706  -0.02617604  0.12315487  1
  O  O29  4  0.09532479  0.09658350  0.30702649  1
  O  O30  4  0.22116881  0.57184599  0.10613784  1
  O  O31  4  0.23112350  0.46419074  0.00506256  1
  O  O32  4  0.28302826  0.20209880  -0.01858270  1
  O  O33  4  0.38437947  0.71126629  0.68108987  1
  O  O34  4  0.45751612  0.39003259  0.60940094  1
  O  O35  4  0.47634175  0.55513843  0.74767498  1
