###############################################################################################
#
# CIF file generated by modified CIFWriter class 
# in pymatgen (v2025.03.10) https://pymatgen.org/
#
###############################################################################################
data_PBE+MBD_tight_5b662c99e4ceab6
_symmetry_space_group_name_H-M   P2/c
_cell_length_a   15.71325250
_cell_length_b   14.62775563
_cell_length_c   7.87272505
_cell_angle_alpha   90.00000000
_cell_angle_beta   71.20801162
_cell_angle_gamma   90.00000000
_symmetry_Int_Tables_number   13
_chemical_formula_moiety   'C6 H6 N12 O12'
_chemical_formula_sum   'H24 C24 N48 O48'
_cell_volume   1713.08391981
_cell_formula_units_Z   4
loop_
 _symmetry_equiv_pos_site_id
 _symmetry_equiv_pos_as_xyz
  1  'x, y, z'
  2  '-x, -y, -z'
  3  '-x, y, -z+1/2'
  4  'x, -y, z+1/2'
loop_
 _atom_site_type_symbol
 _atom_site_label
 _atom_site_symmetry_multiplicity
 _atom_site_fract_x
 _atom_site_fract_y
 _atom_site_fract_z
 _atom_site_occupancy
  H  H0  4  0.06415488  0.20628794  0.52938168  1
  H  H1  4  0.10677971  0.36116610  0.44850361  1
  H  H2  4  0.27749886  0.93575950  0.72116704  1
  H  H3  4  0.30391809  0.08728954  0.50420879  1
  H  H4  4  0.35706115  0.66879074  0.57682346  1
  H  H5  4  0.37326225  0.35804736  0.37111663  1
  C  C6  4  0.13658334  0.21221187  0.46247501  1
  C  C7  4  0.16514920  0.31585143  0.40885951  1
  C  C8  4  0.26322301  0.86569207  0.77016344  1
  C  C9  4  0.27819737  0.14862598  0.45802508  1
  C  C10  4  0.30875438  0.29275885  0.18416074  1
  C  C11  4  0.32039644  0.69133035  0.87566176  1
  N  N12  4  0.11023452  0.92165455  0.79860424  1
  N  N13  4  0.16150407  0.18053789  0.75286591  1
  N  N14  4  0.16708273  0.15585086  0.30233969  1
  N  N15  4  0.17577540  0.66467327  0.58896988  1
  N  N16  4  0.18764631  0.17221129  0.56872581  1
  N  N17  4  0.21710353  0.32587977  0.22011173  1
  N  N18  4  0.22837520  0.56840763  1.06438345  1
  N  N19  4  0.23267210  0.65785525  0.98989855  1
  N  N20  4  0.32077904  0.19612054  0.14341223  1
  N  N21  4  0.33982155  0.22376311  0.44829079  1
  N  N22  4  0.36199307  0.83419084  0.46179450  1
  N  N23  4  0.42653573  0.79222648  0.95772604  1
  O  O24  4  0.03251191  0.91687961  0.89459891  1
  O  O25  4  0.08904213  0.21839399  0.82400812  1
  O  O26  4  0.09360355  0.66233673  0.64313248  1
  O  O27  4  0.14609626  0.01852954  0.19116110  1
  O  O28  4  0.15375476  0.46589699  0.62010032  1
  O  O29  4  0.21244914  0.85230490  1.32644715  1
  O  O30  4  0.22660515  0.65689821  0.43432344  1
  O  O31  4  0.29917956  0.53748761  1.07339959  1
  O  O32  4  0.36140360  0.08335545  -0.06172184  1
  O  O33  4  0.39574839  0.22501178  -0.14734940  1
  O  O34  4  0.44523381  0.87114613  0.98174372  1
  O  O35  4  0.47467548  0.72457040  0.94214053  1
