###############################################################################################
#
# CIF file generated by modified CIFWriter class 
# in pymatgen (v2025.03.10) https://pymatgen.org/
#
###############################################################################################
data_PBE+MBD_tight_5bbdbddc5bfe2c6
_symmetry_space_group_name_H-M   P2_1/c
_cell_length_a   7.92379608
_cell_length_b   14.18755095
_cell_length_c   15.11894526
_cell_angle_alpha   90.00000000
_cell_angle_beta   94.85750111
_cell_angle_gamma   90.00000000
_symmetry_Int_Tables_number   14
_chemical_formula_moiety   'C6 H6 N12 O12'
_chemical_formula_sum   'H24 C24 N48 O48'
_cell_volume   1693.55611215
_cell_formula_units_Z   4
loop_
 _symmetry_equiv_pos_site_id
 _symmetry_equiv_pos_as_xyz
  1  'x, y, z'
  2  '-x, -y, -z'
  3  '-x, y+1/2, -z+1/2'
  4  'x, -y+1/2, z+1/2'
loop_
 _atom_site_type_symbol
 _atom_site_label
 _atom_site_symmetry_multiplicity
 _atom_site_fract_x
 _atom_site_fract_y
 _atom_site_fract_z
 _atom_site_occupancy
  H  H0  4  0.15566904  0.06281908  0.61474856  1
  H  H1  4  0.16435286  0.16373998  0.21380663  1
  H  H2  4  0.42669312  0.03147653  0.69126141  1
  H  H3  4  0.43442552  0.19667069  0.29622369  1
  H  H4  4  0.47549331  0.84779901  0.95932627  1
  H  H5  4  0.47962646  0.80741499  0.51889660  1
  C  C6  4  0.23630935  0.12545407  0.61981162  1
  C  C7  4  0.24225244  0.21315064  0.17934169  1
  C  C8  4  0.41403768  0.39464585  0.17151307  1
  C  C9  4  0.41936800  0.23432461  0.23307271  1
  C  C10  4  0.46021378  0.19415213  0.54339744  1
  C  C11  4  0.46296394  0.20130874  0.08352918  1
  N  N12  4  -0.00488343  0.18362952  0.69885655  1
  N  N13  4  0.15014908  0.20007082  0.66264528  1
  N  N14  4  0.17091375  0.18174135  0.46562659  1
  N  N15  4  0.22746340  0.41690799  0.56628738  1
  N  N16  4  0.28911531  0.15488653  0.53374590  1
  N  N17  4  0.28943983  0.17426295  0.09555931  1
  N  N18  4  0.34972569  0.62428993  0.29862014  1
  N  N19  4  0.37019597  0.94881397  0.42560974  1
  N  N20  4  0.43123803  0.33485648  0.24879937  1
  N  N21  4  0.45531983  0.70236568  0.32619603  1
  N  N22  4  0.45723764  0.86725250  0.17819255  1
  N  N23  4  0.46011182  0.62890537  0.89177182  1
  O  O24  4  -0.06487348  0.10446841  0.68813013  1
  O  O25  4  -0.06473569  0.24991635  0.23709120  1
  O  O26  4  0.02501726  0.15603060  0.47195107  1
  O  O27  4  0.10506409  0.05429332  0.10168799  1
  O  O28  4  0.22635241  0.22689680  0.40480831  1
  O  O29  4  0.27832828  0.58503593  0.35650963  1
  O  O30  4  0.29993009  0.45213236  0.50657522  1
  O  O31  4  0.31508168  0.56271673  0.99806523  1
  O  O32  4  0.33581143  0.89213447  0.71866140  1
  O  O33  4  0.35031968  1.01732732  0.37694939  1
  O  O34  4  0.41188008  0.80876758  0.12194707  1
  O  O35  4  0.42358092  0.54889531  0.67802595  1
