###############################################################################################
#
# CIF file generated by modified CIFWriter class 
# in pymatgen (v2025.03.10) https://pymatgen.org/
#
###############################################################################################
data_PBE+MBD_tight_5c71b8d12d6ef1f
_symmetry_space_group_name_H-M   Pna2_1
_cell_length_a   12.65539626
_cell_length_b   8.98380147
_cell_length_c   14.04239399
_cell_angle_alpha   90.00000000
_cell_angle_beta   90.00000000
_cell_angle_gamma   90.00000000
_symmetry_Int_Tables_number   33
_chemical_formula_moiety   'C6 H6 N12 O12'
_chemical_formula_sum   'H24 C24 N48 O48'
_cell_volume   1596.52986996
_cell_formula_units_Z   4
loop_
 _symmetry_equiv_pos_site_id
 _symmetry_equiv_pos_as_xyz
  1  'x, y, z'
  2  '-x, -y, z+1/2'
  3  '-x+1/2, y+1/2, z+1/2'
  4  'x+1/2, -y+1/2, z'
loop_
 _atom_site_type_symbol
 _atom_site_label
 _atom_site_symmetry_multiplicity
 _atom_site_fract_x
 _atom_site_fract_y
 _atom_site_fract_z
 _atom_site_occupancy
  H  H0  4  0.05299309  0.41538088  0.65999680  1
  H  H1  4  0.05610963  0.40737608  0.36894563  1
  H  H2  4  0.11633426  0.10378078  -0.01072764  1
  H  H3  4  0.16509032  0.62369251  0.69698672  1
  H  H4  4  0.19368207  0.24030680  0.42298036  1
  H  H5  4  0.24620637  0.77056030  0.43618253  1
  C  C6  4  0.10122425  0.44685221  0.59884384  1
  C  C7  4  0.10239929  0.45390551  0.42746949  1
  C  C8  4  0.17589140  0.58654801  0.62349940  1
  C  C9  4  0.19248806  0.34486970  0.46278364  1
  C  C10  4  0.19533204  0.05877245  0.00215836  1
  C  C11  4  0.21385781  0.66882848  0.46755928  1
  N  N12  4  -0.04545652  0.57064759  0.51688310  1
  N  N13  4  0.03744905  0.47039103  0.51419894  1
  N  N14  4  0.10025243  0.67546831  0.32448233  1
  N  N15  4  0.11679667  -0.16077649  -0.07797029  1
  N  N16  4  0.13426120  0.08813262  0.17023265  1
  N  N17  4  0.15051182  0.59199996  0.39825239  1
  N  N18  4  0.15464467  0.70511834  0.55520647  1
  N  N19  4  0.16121316  0.32084983  0.56265746  1
  N  N20  4  0.17044854  0.85719889  0.58998101  1
  N  N21  4  0.20719694  -0.08033304  -0.04773000  1
  N  N22  4  0.21513824  0.04302814  0.10482386  1
  N  N23  4  0.22825460  0.24673971  0.62591259  1
  O  O24  4  -0.08014328  0.61201613  0.43928801  1
  O  O25  4  -0.07798727  0.60689691  0.59581254  1
  O  O26  4  0.03139891  -0.10019903  -0.06566483  1
  O  O27  4  0.04423503  0.07702596  0.14038564  1
  O  O28  4  0.05093010  0.60099653  0.26699303  1
  O  O29  4  0.11474095  0.80931466  0.32467213  1
  O  O30  4  0.13347433  -0.28113355  -0.11589936  1
  O  O31  4  0.16350647  0.12512147  0.24951196  1
  O  O32  4  0.17197050  0.95149200  0.52784741  1
  O  O33  4  0.17460763  0.87372138  0.67579917  1
  O  O34  4  0.19526545  -0.31619841  0.09109248  1
  O  O35  4  0.20190858  0.25076974  0.70991537  1
