###############################################################################################
#
# CIF file generated by modified CIFWriter class 
# in pymatgen (v2025.03.10) https://pymatgen.org/
#
###############################################################################################
data_PBE+MBD_tight_5d75b8e76209aad
_symmetry_space_group_name_H-M   P2_12_12
_cell_length_a   14.60378217
_cell_length_b   15.36185434
_cell_length_c   8.02498209
_cell_angle_alpha   90.00000000
_cell_angle_beta   90.00000000
_cell_angle_gamma   90.00000000
_symmetry_Int_Tables_number   18
_chemical_formula_moiety   'C6 H6 N12 O12'
_chemical_formula_sum   'H24 C24 N48 O48'
_cell_volume   1800.33390865
_cell_formula_units_Z   4
loop_
 _symmetry_equiv_pos_site_id
 _symmetry_equiv_pos_as_xyz
  1  'x, y, z'
  2  '-x, -y, z'
  3  'x+1/2, -y+1/2, -z'
  4  '-x+1/2, y+1/2, -z'
loop_
 _atom_site_type_symbol
 _atom_site_label
 _atom_site_symmetry_multiplicity
 _atom_site_fract_x
 _atom_site_fract_y
 _atom_site_fract_z
 _atom_site_occupancy
  H  H0  4  0.07094438  0.48388265  0.88181635  1
  H  H1  4  0.12272131  1.04693125  -0.05011408  1
  H  H2  4  0.12677008  0.98272520  0.44712024  1
  H  H3  4  0.16069829  0.37177604  1.01214249  1
  H  H4  4  0.20973817  1.15584717  0.10080986  1
  H  H5  4  0.24994682  0.38435752  0.53678137  1
  C  C6  4  0.14294260  0.48832529  0.84721612  1
  C  C7  4  0.16860438  1.01851619  0.04276288  1
  C  C8  4  0.16993963  0.98880371  0.33667259  1
  C  C9  4  0.20208271  0.41583656  0.93591018  1
  C  C10  4  0.22668872  1.08945761  0.13927013  1
  C  C11  4  0.24631443  0.42247937  0.65172208  1
  N  N12  4  0.06366551  0.90541904  0.15707117  1
  N  N13  4  0.11693541  0.64069421  0.93642620  1
  N  N14  4  0.11761125  0.97940729  0.18194710  1
  N  N15  4  0.12414192  0.52159957  0.54723231  1
  N  N16  4  0.14484263  1.14467916  0.39148621  1
  N  N17  4  0.15737612  0.46601539  0.67124584  1
  N  N18  4  0.17771724  0.57292058  0.89097572  1
  N  N19  4  0.20423837  1.07681959  0.31709166  1
  N  N20  4  0.20628083  0.92294896  -0.19540982  1
  N  N21  4  0.21765185  0.27809507  0.77298376  1
  N  N22  4  0.23016096  0.95834055  -0.03779083  1
  N  N23  4  0.24568418  0.36728423  0.79883762  1
  O  O24  4  0.03370608  0.89467998  0.01568874  1
  O  O25  4  0.03721942  0.61945992  0.96083619  1
  O  O26  4  0.04907025  0.86094443  0.28107802  1
  O  O27  4  0.06417476  0.57275486  0.59029549  1
  O  O28  4  0.10327284  1.12268899  0.51533603  1
  O  O29  4  0.14567218  0.96086538  -0.27102975  1
  O  O30  4  0.14875387  1.21554263  0.32540399  1
  O  O31  4  0.15034761  0.71305338  0.95085984  1
  O  O32  4  0.15645896  0.51193143  0.40755350  1
  O  O33  4  0.17262155  0.24470332  0.88418818  1
  O  O34  4  0.24654104  0.24454104  0.64625936  1
  O  O35  4  0.24882482  0.36048687  1.24189974  1
