###############################################################################################
#
# CIF file generated by modified CIFWriter class 
# in pymatgen (v2025.03.10) https://pymatgen.org/
#
###############################################################################################
data_PBE+MBD_tight_5e135d7c815bf93
_symmetry_space_group_name_H-M   P2_1/c
_cell_length_a   12.38767058
_cell_length_b   8.25747354
_cell_length_c   15.38950791
_cell_angle_alpha   90.00000000
_cell_angle_beta   94.65575684
_cell_angle_gamma   90.00000000
_symmetry_Int_Tables_number   14
_chemical_formula_moiety   'C6 H6 N12 O12'
_chemical_formula_sum   'H24 C24 N48 O48'
_cell_volume   1569.01171952
_cell_formula_units_Z   4
loop_
 _symmetry_equiv_pos_site_id
 _symmetry_equiv_pos_as_xyz
  1  'x, y, z'
  2  '-x, -y, -z'
  3  '-x, y+1/2, -z+1/2'
  4  'x, -y+1/2, z+1/2'
loop_
 _atom_site_type_symbol
 _atom_site_label
 _atom_site_symmetry_multiplicity
 _atom_site_fract_x
 _atom_site_fract_y
 _atom_site_fract_z
 _atom_site_occupancy
  H  H0  4  0.14308239  0.18413525  0.18664889  1
  H  H1  4  0.16498650  0.10849357  0.79398184  1
  H  H2  4  0.18833212  0.72881162  0.83389955  1
  H  H3  4  0.22436134  0.36184979  1.01804794  1
  H  H4  4  0.35769575  -0.15616885  0.27821872  1
  H  H5  4  0.39815340  0.21073851  0.46493843  1
  C  C6  4  0.18447075  0.13735859  0.24689460  1
  C  C7  4  0.19924293  0.27715552  0.31905357  1
  C  C8  4  0.20450478  0.59896310  0.83883895  1
  C  C9  4  0.22670904  0.11780624  0.44800422  1
  C  C10  4  0.31604238  -0.05133534  0.30302219  1
  C  C11  4  0.34016214  0.16522638  0.41337188  1
  N  N12  4  0.02074500  0.00578171  0.29603759  1
  N  N13  4  0.07204187  0.18579882  0.93689111  1
  N  N14  4  0.12923932  -0.00439739  0.27975764  1
  N  N15  4  0.15164884  0.27652659  0.89717451  1
  N  N16  4  0.19211009  -0.16459237  0.49528305  1
  N  N17  4  0.20231591  -0.04917149  0.42818551  1
  N  N18  4  0.28858354  0.06603945  0.23289556  1
  N  N19  4  0.30765080  0.02000705  0.14551548  1
  N  N20  4  0.31375936  0.29266485  0.34845061  1
  N  N21  4  0.35442957  0.04759481  0.86494363  1
  N  N22  4  0.38305325  0.02314746  0.37324814  1
  N  N23  4  0.49661832  -0.00099335  0.37742664  1
  O  O24  4  -0.03024370  0.37919774  0.76291463  1
  O  O25  4  -0.01389239  0.60358077  0.83983486  1
  O  O26  4  0.02677334  0.41980565  0.39204840  1
  O  O27  4  0.05446385  0.27081312  0.51017042  1
  O  O28  4  0.18776062  -0.11003116  0.56869280  1
  O  O29  4  0.18854674  -0.30624585  0.47258730  1
  O  O30  4  0.26798677  0.10981548  0.08834119  1
  O  O31  4  0.31334869  -0.05757985  0.81649523  1
  O  O32  4  0.36563608  -0.09709691  0.13761778  1
  O  O33  4  0.42870496  0.46719915  0.42112416  1
  O  O34  4  0.44894017  0.58282549  0.07012310  1
  O  O35  4  0.47106040  0.39204944  0.16911162  1
