###############################################################################################
#
# CIF file generated by modified CIFWriter class 
# in pymatgen (v2025.03.10) https://pymatgen.org/
#
###############################################################################################
data_PBE+MBD_tight_6043ce0865b717d
_symmetry_space_group_name_H-M   P2/c
_cell_length_a   27.82955052
_cell_length_b   8.13982506
_cell_length_c   7.93593213
_cell_angle_alpha   90.00000000
_cell_angle_beta   90.00000000
_cell_angle_gamma   92.61852170
_symmetry_Int_Tables_number   13
_chemical_formula_moiety   'C6 H6 N12 O12'
_chemical_formula_sum   'H24 C24 N48 O48'
_cell_volume   1795.83116730
_cell_formula_units_Z   4
loop_
 _symmetry_equiv_pos_site_id
 _symmetry_equiv_pos_as_xyz
  1  'x, y, z'
  2  '-x, -y, -z'
  3  '-x+1/2, -y, z'
  4  'x+1/2, y, -z'
loop_
 _atom_site_type_symbol
 _atom_site_label
 _atom_site_symmetry_multiplicity
 _atom_site_fract_x
 _atom_site_fract_y
 _atom_site_fract_z
 _atom_site_occupancy
  H  H0  4  0.03102874  0.92836009  0.53850292  1
  H  H1  4  0.05465403  1.01429220  1.04092455  1
  H  H2  4  0.05611005  0.67529892  0.65720685  1
  H  H3  4  0.13625983  1.11655504  1.04696373  1
  H  H4  4  0.17164396  1.12381865  0.55497964  1
  H  H5  4  0.19698558  0.86260131  0.67103020  1
  C  C6  4  0.06085401  0.94946275  0.62628668  1
  C  C7  4  0.07281042  0.98452519  0.92352249  1
  C  C8  4  0.07736052  0.78163808  0.70496730  1
  C  C9  4  0.12759316  1.05528065  0.92734150  1
  C  C10  4  0.14454235  1.06232627  0.63594137  1
  C  C11  4  0.16096447  0.89351348  0.71170074  1
  N  N12  4  0.02836572  1.19391236  0.76902753  1
  N  N13  4  0.04688003  1.03874564  0.77667311  1
  N  N14  4  0.06911237  0.80990713  0.88473761  1
  N  N15  4  0.08304916  0.69593976  1.00512937  1
  N  N16  4  0.09486802  1.10710615  0.38317072  1
  N  N17  4  0.10136581  1.02786862  0.53946517  1
  N  N18  4  0.12753536  0.75879440  0.66864740  1
  N  N19  4  0.13538502  1.16546174  0.78386052  1
  N  N20  4  0.13957552  0.64916016  0.53479945  1
  N  N21  4  0.15883618  0.92050013  0.89252708  1
  N  N22  4  0.17030408  1.30465213  0.81223078  1
  N  N23  4  0.19914663  0.89224026  0.99618583  1
  O  O24  4  0.01653114  1.24073548  0.62816911  1
  O  O25  4  0.02450611  1.26597221  0.90333230  1
  O  O26  4  0.05551121  1.08255765  0.31558376  1
  O  O27  4  0.08706080  0.55564303  0.95497420  1
  O  O28  4  0.08847986  0.74973321  1.14890874  1
  O  O29  4  0.10858763  0.54429906  0.49861695  1
  O  O30  4  0.12949282  1.18661080  0.32736720  1
  O  O31  4  0.17270884  1.35567036  0.95546949  1
  O  O32  4  0.17976162  0.67052953  0.47550020  1
  O  O33  4  0.19065710  1.35778648  0.68625571  1
  O  O34  4  0.19611427  0.93699793  1.14201090  1
  O  O35  4  0.23175680  0.81992152  0.92892014  1
