###############################################################################################
#
# CIF file generated by modified CIFWriter class 
# in pymatgen (v2025.03.10) https://pymatgen.org/
#
###############################################################################################
data_PBE+MBD_tight_617c1a749858631
_symmetry_space_group_name_H-M   P4_1
_cell_length_a   15.48980110
_cell_length_b   15.48980110
_cell_length_c   8.07914389
_cell_angle_alpha   90.00000000
_cell_angle_beta   90.00000000
_cell_angle_gamma   90.00000000
_symmetry_Int_Tables_number   76
_chemical_formula_moiety   'C6 H6 N12 O12'
_chemical_formula_sum   'H24 C24 N48 O48'
_cell_volume   1938.46081018
_cell_formula_units_Z   4
loop_
 _symmetry_equiv_pos_site_id
 _symmetry_equiv_pos_as_xyz
  1  'x, y, z'
  2  '-y, x, z+1/4'
  3  '-x, -y, z+1/2'
  4  'y, -x, z+3/4'
loop_
 _atom_site_type_symbol
 _atom_site_label
 _atom_site_symmetry_multiplicity
 _atom_site_fract_x
 _atom_site_fract_y
 _atom_site_fract_z
 _atom_site_occupancy
  H  H0  4  -0.06352815  0.35972042  0.79735436  1
  H  H1  4  0.00245960  0.33791031  1.27965900  1
  H  H2  4  0.03703081  0.47837834  0.85339371  1
  H  H3  4  0.12328926  0.24289015  1.27397582  1
  H  H4  4  0.14527517  0.19058996  0.78616308  1
  H  H5  4  0.24365234  0.30792083  0.84995002  1
  C  C6  4  -0.00727295  0.34009190  0.87004342  1
  C  C7  4  0.03050491  0.33511260  1.15546395  1
  C  C8  4  0.05746383  0.41712795  0.90741763  1
  C  C9  4  0.11156598  0.27039131  1.15138730  1
  C  C10  4  0.11579254  0.23897902  0.86632649  1
  C  C11  4  0.17983744  0.31685786  0.90575760  1
  N  N12  4  -0.11949244  0.29916907  1.07188305  1
  N  N13  4  -0.03237025  0.30994408  1.03273530  1
  N  N14  4  0.03745714  0.27003234  0.78535925  1
  N  N15  4  0.03857624  0.27266198  0.61111074  1
  N  N16  4  0.05276009  0.42026748  1.08963099  1
  N  N17  4  0.09459724  0.20428492  1.02766897  1
  N  N18  4  0.10615863  0.47507849  1.17899605  1
  N  N19  4  0.11526977  0.11654054  1.06157283  1
  N  N20  4  0.14076088  0.39453487  0.84315606  1
  N  N21  4  0.18564304  0.31735905  1.08712532  1
  N  N22  4  0.19120802  0.45771970  0.75475206  1
  N  N23  4  0.26983408  0.30060231  1.16183326  1
  O  O24  4  -0.16930259  0.29486900  0.95414410  1
  O  O25  4  -0.13676132  0.29027056  1.21889319  1
  O  O26  4  -0.01471662  0.32021254  0.54517129  1
  O  O27  4  0.06897305  0.88377902  0.69033838  1
  O  O28  4  0.09073173  0.22552487  0.54172368  1
  O  O29  4  0.09742368  0.87352287  0.95604307  1
  O  O30  4  0.11022467  0.46116589  1.32925179  1
  O  O31  4  0.14027512  0.53397972  1.10194667  1
  O  O32  4  0.15183902  0.52216759  0.71163777  1
  O  O33  4  0.26568404  0.43819356  0.72720767  1
  O  O34  4  0.26808867  0.27259473  1.30258306  1
  O  O35  4  0.32116039  0.66847701  0.82793347  1
