###############################################################################################
#
# CIF file generated by modified CIFWriter class 
# in pymatgen (v2025.03.10) https://pymatgen.org/
#
###############################################################################################
data_PBE+MBD_tight_63a3c4aade86e0a
_symmetry_space_group_name_H-M   Pna2_1
_cell_length_a   16.15806080
_cell_length_b   8.02063923
_cell_length_c   12.47491555
_cell_angle_alpha   90.00000000
_cell_angle_beta   90.00000000
_cell_angle_gamma   90.00000000
_symmetry_Int_Tables_number   33
_chemical_formula_moiety   'C6 H6 N12 O12'
_chemical_formula_sum   'H24 C24 N48 O48'
_cell_volume   1616.72381093
_cell_formula_units_Z   4
loop_
 _symmetry_equiv_pos_site_id
 _symmetry_equiv_pos_as_xyz
  1  'x, y, z'
  2  '-x, -y, z+1/2'
  3  '-x+1/2, y+1/2, z+1/2'
  4  'x+1/2, -y+1/2, z'
loop_
 _atom_site_type_symbol
 _atom_site_label
 _atom_site_symmetry_multiplicity
 _atom_site_fract_x
 _atom_site_fract_y
 _atom_site_fract_z
 _atom_site_occupancy
  H  H0  4  -0.02624262  0.49574040  0.31402722  1
  H  H1  4  0.06678433  0.30234010  0.04132977  1
  H  H2  4  0.08196812  0.30786585  0.36946819  1
  H  H3  4  0.15280438  0.84600453  0.23399963  1
  H  H4  4  0.17019666  0.50059700  -0.00831839  1
  H  H5  4  0.23768277  0.14878369  0.77440385  1
  C  C6  4  0.02984219  0.50976058  0.26598230  1
  C  C7  4  0.08334860  0.38210574  0.10904830  1
  C  C8  4  0.10018875  0.38481342  0.30109051  1
  C  C9  4  0.13481218  0.71758560  0.21619040  1
  C  C10  4  0.15246859  0.51505579  0.07564117  1
  C  C11  4  0.20562094  0.58835020  0.24621911  1
  N  N12  4  -0.06825560  0.39920439  0.12936530  1
  N  N13  4  0.00937743  0.80351196  0.32000487  1
  N  N14  4  0.01216714  0.46916956  0.15275672  1
  N  N15  4  0.06051327  0.67692859  0.27491651  1
  N  N16  4  0.06748349  0.76500138  0.03945328  1
  N  N17  4  0.10837722  0.28493429  0.20278797  1
  N  N18  4  0.12781184  0.68639969  0.10047216  1
  N  N19  4  0.17033824  0.16604385  0.19288552  1
  N  N20  4  0.17339093  0.47960422  0.32798206  1
  N  N21  4  0.19569888  0.01454208  0.59807936  1
  N  N22  4  0.22293841  0.49684336  0.14624291  1
  N  N23  4  0.22856754  0.41503775  0.40744536  1
  O  O24  4  -0.12205262  0.42358635  0.19591883  1
  O  O25  4  -0.07488813  0.33138322  0.04220039  1
  O  O26  4  -0.05618980  0.75532395  0.35852077  1
  O  O27  4  0.03667050  0.94459286  0.31834350  1
  O  O28  4  0.03893534  0.89454820  0.07496438  1
  O  O29  4  0.05023176  0.69615540  -0.04616267  1
  O  O30  4  0.14132290  0.06411014  0.65763551  1
  O  O31  4  0.18767278  0.12297651  0.10133744  1
  O  O32  4  0.19030251  -0.03151079  0.50551568  1
  O  O33  4  0.19621140  0.33243657  0.47816015  1
  O  O34  4  0.19883043  -0.04619564  0.89824898  1
  O  O35  4  0.19931500  0.11186184  0.27712450  1
