###############################################################################################
#
# CIF file generated by modified CIFWriter class 
# in pymatgen (v2025.03.10) https://pymatgen.org/
#
###############################################################################################
data_PBE+MBD_tight_6473381f07c02d1
_symmetry_space_group_name_H-M   Pna2_1
_cell_length_a   13.04015651
_cell_length_b   8.86465444
_cell_length_c   13.68557214
_cell_angle_alpha   90.00000000
_cell_angle_beta   90.00000000
_cell_angle_gamma   90.00000000
_symmetry_Int_Tables_number   33
_chemical_formula_moiety   'C6 H6 N12 O12'
_chemical_formula_sum   'H24 C24 N48 O48'
_cell_volume   1582.00398459
_cell_formula_units_Z   4
loop_
 _symmetry_equiv_pos_site_id
 _symmetry_equiv_pos_as_xyz
  1  'x, y, z'
  2  '-x, -y, z+1/2'
  3  '-x+1/2, y+1/2, z+1/2'
  4  'x+1/2, -y+1/2, z'
loop_
 _atom_site_type_symbol
 _atom_site_label
 _atom_site_symmetry_multiplicity
 _atom_site_fract_x
 _atom_site_fract_y
 _atom_site_fract_z
 _atom_site_occupancy
  H  H0  4  -0.07611022  0.61172400  0.19706842  1
  H  H1  4  0.06950579  0.77062101  0.15801524  1
  H  H2  4  0.09207135  0.66508724  0.44324885  1
  H  H3  4  0.11179942  0.23302627  0.19033778  1
  H  H4  4  0.20333835  0.44699226  0.44061941  1
  H  H5  4  0.24276023  -0.10608219  0.64701861  1
  C  C6  4  -0.00426554  0.56906459  0.22747969  1
  C  C7  4  0.09113818  0.67254103  0.20191442  1
  C  C8  4  0.09586598  0.61482769  0.37053156  1
  C  C9  4  0.10743102  0.34512543  0.22329841  1
  C  C10  4  0.16953988  0.46828565  0.36884546  1
  C  C11  4  0.20244904  0.44947518  0.19574802  1
  N  N12  4  -0.09452823  0.58164540  0.38840026  1
  N  N13  4  -0.06310249  0.33616972  0.14411946  1
  N  N14  4  -0.00466777  0.57272895  0.33384570  1
  N  N15  4  0.01474668  0.41861253  0.19153593  1
  N  N16  4  0.03610273  0.27690421  0.38677197  1
  N  N17  4  0.11166499  0.88155780  0.31979534  1
  N  N18  4  0.11675513  0.33595248  0.33102323  1
  N  N19  4  0.13168093  0.72226534  0.29754543  1
  N  N20  4  0.16474842  0.58432673  0.14939454  1
  N  N21  4  0.16987386  0.07209338  0.80658853  1
  N  N22  4  0.22255016  0.65339057  0.07266113  1
  N  N23  4  0.24716209  0.47691813  0.29309526  1
  O  O24  4  -0.17424507  0.56312493  0.34261436  1
  O  O25  4  -0.14219701  0.40597943  0.12527766  1
  O  O26  4  -0.08439816  0.60203719  0.47640817  1
  O  O27  4  -0.04402193  0.20517312  0.12380323  1
  O  O28  4  -0.02665580  0.19955189  0.34316373  1
  O  O29  4  0.03773724  0.30808791  0.47419267  1
  O  O30  4  0.09448104  0.91185499  0.40456791  1
  O  O31  4  0.12002022  0.96622161  0.25017735  1
  O  O32  4  0.12102682  0.10635123  0.73283929  1
  O  O33  4  0.15211144  0.11044893  0.89085313  1
  O  O34  4  0.19757469  0.78255931  0.05159301  1
  O  O35  4  0.21218380  0.07544914  0.53450446  1
