###############################################################################################
#
# CIF file generated by modified CIFWriter class 
# in pymatgen (v2025.03.10) https://pymatgen.org/
#
###############################################################################################
data_PBE+MBD_tight_66c400f75f10b89
_symmetry_space_group_name_H-M   Pca2_1
_cell_length_a   13.04598699
_cell_length_b   7.62207707
_cell_length_c   16.64049329
_cell_angle_alpha   90.00000000
_cell_angle_beta   90.00000000
_cell_angle_gamma   90.00000000
_symmetry_Int_Tables_number   29
_chemical_formula_moiety   'C6 H6 N12 O12'
_chemical_formula_sum   'H24 C24 N48 O48'
_cell_volume   1654.68935598
_cell_formula_units_Z   4
loop_
 _symmetry_equiv_pos_site_id
 _symmetry_equiv_pos_as_xyz
  1  'x, y, z'
  2  '-x, -y, z+1/2'
  3  '-x+1/2, y, z+1/2'
  4  'x+1/2, -y, z'
loop_
 _atom_site_type_symbol
 _atom_site_label
 _atom_site_symmetry_multiplicity
 _atom_site_fract_x
 _atom_site_fract_y
 _atom_site_fract_z
 _atom_site_occupancy
  H  H0  4  -0.06837186  0.34464765  0.40070663  1
  H  H1  4  0.00614329  0.54650692  0.30712353  1
  H  H2  4  0.07031594  -0.11699484  0.33677741  1
  H  H3  4  0.16366912  0.01192104  0.44692627  1
  H  H4  4  0.19702253  0.24095156  0.17714385  1
  H  H5  4  0.20016759  0.35960589  0.78659410  1
  C  C6  4  0.00157882  0.29113537  0.37419489  1
  C  C7  4  0.05178627  0.42693702  0.31182437  1
  C  C8  4  0.08140314  0.02390876  0.32881648  1
  C  C9  4  0.14371258  0.10819547  0.40065912  1
  C  C10  4  0.15806372  0.23528816  0.23535843  1
  C  C11  4  0.22417560  0.31602529  0.30649592  1
  N  N12  4  -0.09343605  0.09850661  0.28054341  1
  N  N13  4  -0.01599228  0.12002737  0.33650596  1
  N  N14  4  0.02749987  0.42075136  0.16300146  1
  N  N15  4  0.03063752  0.19741858  0.51419440  1
  N  N16  4  0.06423333  0.34128065  0.23517219  1
  N  N17  4  0.07603392  0.24407103  0.43514397  1
  N  N18  4  0.13404205  0.05618270  0.25454994  1
  N  N19  4  0.15130364  -0.08117645  0.19779370  1
  N  N20  4  0.15923261  0.46356035  0.33090338  1
  N  N21  4  0.17125840  0.17311101  0.91280266  1
  N  N22  4  0.18501291  0.56655546  0.39651707  1
  N  N23  4  0.23585730  0.18461046  0.36833122  1
  O  O24  4  -0.15968150  0.21394490  0.27926004  1
  O  O25  4  -0.09098072  -0.03567619  0.23981787  1
  O  O26  4  -0.05061195  0.26645882  0.52936459  1
  O  O27  4  -0.04336747  0.52389553  0.17135275  1
  O  O28  4  0.06703835  0.36905109  0.10105367  1
  O  O29  4  0.08338718  0.10285793  0.55601121  1
  O  O30  4  0.09819104  0.25477460  0.88596561  1
  O  O31  4  0.11774214  0.66541107  0.42152354  1
  O  O32  4  0.12366170  -0.22716736  0.21882821  1
  O  O33  4  0.17239285  0.07623303  0.97112743  1
  O  O34  4  0.19392753  -0.03850657  0.13593636  1
  O  O35  4  0.22714155  0.55234020  0.92187936  1
