###############################################################################################
#
# CIF file generated by modified CIFWriter class 
# in pymatgen (v2025.03.10) https://pymatgen.org/
#
###############################################################################################
data_PBE+MBD_tight_689b75ce4be964a
_symmetry_space_group_name_H-M   P2_12_12_1
_cell_length_a   12.78905679
_cell_length_b   14.42108091
_cell_length_c   9.00664623
_cell_angle_alpha   90.00000000
_cell_angle_beta   90.00000000
_cell_angle_gamma   90.00000000
_symmetry_Int_Tables_number   19
_chemical_formula_moiety   'C6 H6 N12 O12'
_chemical_formula_sum   'H24 C24 N48 O48'
_cell_volume   1661.11398288
_cell_formula_units_Z   4
loop_
 _symmetry_equiv_pos_site_id
 _symmetry_equiv_pos_as_xyz
  1  'x, y, z'
  2  '-x, y+1/2, -z+1/2'
  3  '-x+1/2, -y, z+1/2'
  4  'x+1/2, -y+1/2, -z'
loop_
 _atom_site_type_symbol
 _atom_site_label
 _atom_site_symmetry_multiplicity
 _atom_site_fract_x
 _atom_site_fract_y
 _atom_site_fract_z
 _atom_site_occupancy
  H  H0  4  -0.19154307  0.56257367  0.64927336  1
  H  H1  4  -0.06770906  0.52327867  0.83792185  1
  H  H2  4  -0.02809184  0.74878005  0.39814842  1
  H  H3  4  -0.00989997  0.59522401  0.28575384  1
  H  H4  4  0.18380704  0.67709238  0.72916585  1
  H  H5  4  0.21042158  0.52908462  0.60871794  1
  C  C6  4  -0.11191365  0.58092427  0.61565700  1
  C  C7  4  -0.02882889  0.55462974  0.74215035  1
  C  C8  4  -0.01309068  0.69402451  0.47943340  1
  C  C9  4  0.00023129  0.59415483  0.40659414  1
  C  C10  4  0.11344709  0.65149339  0.67378292  1
  C  C11  4  0.13002458  0.55386299  0.59875154  1
  N  N12  4  -0.16713902  0.74732605  0.62703167  1
  N  N13  4  -0.16593253  0.50430785  0.38285608  1
  N  N14  4  -0.10233208  0.67817344  0.57548446  1
  N  N15  4  -0.08126410  0.53638279  0.47699609  1
  N  N16  4  0.02921264  0.63715506  0.78244893  1
  N  N17  4  0.03932490  0.40557104  0.64563526  1
  N  N18  4  0.05119455  0.65342545  0.93708344  1
  N  N19  4  0.05640297  0.49715863  0.68424787  1
  N  N20  4  0.08098769  0.71621115  0.56096804  1
  N  N21  4  0.10297639  0.56031347  0.44334926  1
  N  N22  4  0.12701860  0.80466350  0.55111861  1
  N  N23  4  0.16151638  0.50938143  0.33851510  1
  O  O24  4  -0.24306384  0.47593438  0.44772643  1
  O  O25  4  -0.23598102  0.72380612  0.71414204  1
  O  O26  4  -0.15028019  0.82580458  0.57835833  1
  O  O27  4  -0.14865699  0.50437472  0.24981202  1
  O  O28  4  -0.04170527  0.37051686  0.69285477  1
  O  O29  4  -0.01436337  0.62333734  1.02330746  1
  O  O30  4  0.08388869  0.86095817  0.47091532  1
  O  O31  4  0.10740962  0.36778109  0.57115214  1
  O  O32  4  0.12352723  0.50160670  0.21427704  1
  O  O33  4  0.12847697  0.69940758  0.96456000  1
  O  O34  4  0.20819952  0.81515491  0.62196899  1
  O  O35  4  0.24621358  0.48010494  0.38058332  1
