###############################################################################################
#
# CIF file generated by modified CIFWriter class 
# in pymatgen (v2025.03.10) https://pymatgen.org/
#
###############################################################################################
data_PBE+MBD_tight_69e388145f98293
_symmetry_space_group_name_H-M   P2_12_12
_cell_length_a   13.33136602
_cell_length_b   15.94307362
_cell_length_c   7.92496407
_cell_angle_alpha   90.00000000
_cell_angle_beta   90.00000000
_cell_angle_gamma   90.00000000
_symmetry_Int_Tables_number   18
_chemical_formula_moiety   'C6 H6 N12 O12'
_chemical_formula_sum   'H24 C24 N48 O48'
_cell_volume   1684.39523980
_cell_formula_units_Z   4
loop_
 _symmetry_equiv_pos_site_id
 _symmetry_equiv_pos_as_xyz
  1  'x, y, z'
  2  '-x, -y, z'
  3  'x+1/2, -y+1/2, -z'
  4  '-x+1/2, y+1/2, -z'
loop_
 _atom_site_type_symbol
 _atom_site_label
 _atom_site_symmetry_multiplicity
 _atom_site_fract_x
 _atom_site_fract_y
 _atom_site_fract_z
 _atom_site_occupancy
  H  H0  4  -0.06573783  0.21604855  0.37972158  1
  H  H1  4  0.03754057  0.33376008  0.31527315  1
  H  H2  4  0.09564753  0.01994994  0.18038415  1
  H  H3  4  0.14250832  0.03238127  0.47577160  1
  H  H4  4  0.18187016  0.73953932  0.64134842  1
  H  H5  4  0.23127438  0.72777565  0.93492904  1
  C  C6  4  0.01035603  0.19606169  0.34924095  1
  C  C7  4  0.07984179  0.27524110  0.30500169  1
  C  C8  4  0.10518803  0.08509212  0.21997569  1
  C  C9  4  0.13685884  0.09310973  0.41231532  1
  C  C10  4  0.20896403  0.20819198  0.15133595  1
  C  C11  4  0.24166569  0.21573600  0.34361737  1
  N  N12  4  -0.04150731  0.14630345  0.06759117  1
  N  N13  4  0.01038610  0.13188120  0.21890090  1
  N  N14  4  0.05349674  0.14376069  0.48153605  1
  N  N15  4  0.06046146  0.17687264  0.64456398  1
  N  N16  4  0.12180341  0.26280885  0.13800966  1
  N  N17  4  0.12513097  0.33260088  0.02101047  1
  N  N18  4  0.16779844  0.27368128  0.41567945  1
  N  N19  4  0.17954693  0.12315910  0.11233170  1
  N  N20  4  0.19613184  0.60693377  0.45512865  1
  N  N21  4  0.19870051  0.34932671  0.49605322  1
  N  N22  4  0.23357859  0.13325366  0.41819394  1
  N  N23  4  0.24848250  0.07043717  0.02386443  1
  O  O24  4  -0.09487540  0.20892420  0.06492806  1
  O  O25  4  -0.03035413  0.09325313  -0.04190583  1
  O  O26  4  0.00069067  0.23258304  0.68024628  1
  O  O27  4  0.06676570  0.38941053  0.04918467  1
  O  O28  4  0.12376506  0.65300427  0.43568279  1
  O  O29  4  0.12398572  0.14529044  0.73606224  1
  O  O30  4  0.13206110  0.39854201  0.52997499  1
  O  O31  4  0.17843952  0.60544726  1.03572641  1
  O  O32  4  0.18270007  0.32366549  -0.09713482  1
  O  O33  4  0.21156112  0.85512079  0.47028520  1
  O  O34  4  0.21359107  0.54071157  0.38612510  1
  O  O35  4  0.22559141  -0.00361493  0.01469086  1
