###############################################################################################
#
# CIF file generated by modified CIFWriter class 
# in pymatgen (v2025.03.10) https://pymatgen.org/
#
###############################################################################################
data_PBE+MBD_tight_6abce2d4295a496
_symmetry_space_group_name_H-M   P4_3
_cell_length_a   8.90619562
_cell_length_b   8.90619562
_cell_length_c   23.90718751
_cell_angle_alpha   90.00000000
_cell_angle_beta   90.00000000
_cell_angle_gamma   90.00000000
_symmetry_Int_Tables_number   78
_chemical_formula_moiety   'C6 H6 N12 O12'
_chemical_formula_sum   'H24 C24 N48 O48'
_cell_volume   1896.32577508
_cell_formula_units_Z   4
loop_
 _symmetry_equiv_pos_site_id
 _symmetry_equiv_pos_as_xyz
  1  'x, y, z'
  2  '-y, x, z+3/4'
  3  '-x, -y, z+1/2'
  4  'y, -x, z+1/4'
loop_
 _atom_site_type_symbol
 _atom_site_label
 _atom_site_symmetry_multiplicity
 _atom_site_fract_x
 _atom_site_fract_y
 _atom_site_fract_z
 _atom_site_occupancy
  H  H0  4  -0.03926189  0.23609383  0.08914269  1
  H  H1  4  0.02948646  0.43383026  0.23852836  1
  H  H2  4  0.06294138  0.89123028  0.39566191  1
  H  H3  4  0.25177422  0.57951166  0.22209620  1
  H  H4  4  0.31696376  0.50757812  0.36485106  1
  H  H5  4  0.34586427  0.48779950  0.05815355  1
  C  C6  4  0.05362583  0.29143538  0.11081125  1
  C  C7  4  0.08904686  0.39530048  0.20118602  1
  C  C8  4  0.14918315  0.17894413  0.14836234  1
  C  C9  4  0.23750797  0.49358113  0.18999210  1
  C  C10  4  0.28113756  0.44085407  0.09279019  1
  C  C11  4  0.32937574  0.62284001  0.37991588  1
  N  N12  4  -0.16383427  0.41601329  0.15803170  1
  N  N13  4  -0.00435149  0.40154639  0.15100794  1
  N  N14  4  0.05146140  0.14446536  0.24474091  1
  N  N15  4  0.06207401  0.63268103  0.35229526  1
  N  N16  4  0.10428003  0.38970380  0.01530370  1
  N  N17  4  0.13146583  0.23726236  0.20508740  1
  N  N18  4  0.13249442  0.66661229  0.11981980  1
  N  N19  4  0.15470658  0.35807302  0.07072700  1
  N  N20  4  0.18341339  0.69465972  0.38225745  1
  N  N21  4  0.23946711  0.55709466  0.13379802  1
  N  N22  4  0.35818492  0.54017437  0.47871086  1
  N  N23  4  0.37054037  0.40207024  0.18406763  1
  O  O24  4  -0.24082970  0.36423702  0.12036147  1
  O  O25  4  -0.20448388  0.48510789  0.19933995  1
  O  O26  4  -0.05528099  0.70315393  0.35315657  1
  O  O27  4  -0.02581633  0.35721966  0.00499529  1
  O  O28  4  0.01160509  0.95924958  0.48286717  1
  O  O29  4  0.01185779  0.20741333  0.28754729  1
  O  O30  4  0.07631231  0.73386484  0.15936262  1
  O  O31  4  0.08643211  0.51264595  0.32877164  1
  O  O32  4  0.10996485  0.68530012  0.06986105  1
  O  O33  4  0.19856832  0.43959185  -0.01674399  1
  O  O34  4  0.26387710  0.44464052  0.46868318  1
  O  O35  4  0.42141830  0.56584760  0.52345803  1
