###############################################################################################
#
# CIF file generated by modified CIFWriter class 
# in pymatgen (v2025.03.10) https://pymatgen.org/
#
###############################################################################################
data_PBE+MBD_tight_6d994560518f7a1
_symmetry_space_group_name_H-M   Pna2_1
_cell_length_a   15.44231453
_cell_length_b   12.61266857
_cell_length_c   7.96212878
_cell_angle_alpha   90.00000000
_cell_angle_beta   90.00000000
_cell_angle_gamma   90.00000000
_symmetry_Int_Tables_number   33
_chemical_formula_moiety   'C6 H6 N12 O12'
_chemical_formula_sum   'H24 C24 N48 O48'
_cell_volume   1550.77422814
_cell_formula_units_Z   4
loop_
 _symmetry_equiv_pos_site_id
 _symmetry_equiv_pos_as_xyz
  1  'x, y, z'
  2  '-x, -y, z+1/2'
  3  '-x+1/2, y+1/2, z+1/2'
  4  'x+1/2, -y+1/2, z'
loop_
 _atom_site_type_symbol
 _atom_site_label
 _atom_site_symmetry_multiplicity
 _atom_site_fract_x
 _atom_site_fract_y
 _atom_site_fract_z
 _atom_site_occupancy
  H  H0  4  -0.01671448  0.68324176  -0.22300101  1
  H  H1  4  0.01987641  0.93648461  0.10464387  1
  H  H2  4  0.09459136  0.54436198  0.18058068  1
  H  H3  4  0.11551944  0.68796617  0.36585106  1
  H  H4  4  0.13793315  0.67662204  -0.27310738  1
  H  H5  4  0.17429537  0.93232744  0.04416364  1
  C  C6  4  0.02108874  0.70693169  -0.11330409  1
  C  C7  4  0.04352974  0.85651090  0.07902045  1
  C  C8  4  0.09106867  0.61933180  0.11242957  1
  C  C9  4  0.10505942  0.71681159  0.23815399  1
  C  C10  4  0.12265951  0.70234821  -0.14542088  1
  C  C11  4  0.14472734  0.85354221  0.04342475  1
  N  N12  4  -0.08773720  0.84954543  -0.09785202  1
  N  N13  4  -0.04749844  0.54609182  0.01117257  1
  N  N14  4  -0.00059841  0.81416333  -0.06595360  1
  N  N15  4  0.00236362  0.83683586  0.37938163  1
  N  N16  4  0.00870419  0.63203473  0.02560645  1
  N  N17  4  0.03125137  0.78818056  0.22774521  1
  N  N18  4  0.15497717  0.62483219  -0.02189440  1
  N  N19  4  0.16180727  0.80351449  -0.11581563  1
  N  N20  4  0.17398217  0.78844158  0.18471954  1
  N  N21  4  0.17862454  0.52263092  -0.09746611  1
  N  N22  4  0.19432338  0.86333292  -0.25291146  1
  N  N23  4  0.23939217  0.25934532  0.70417632  1
  O  O24  4  -0.12864970  0.79796812  -0.19980870  1
  O  O25  4  -0.11001431  0.93008079  -0.02442012  1
  O  O26  4  -0.10000724  0.54857918  -0.10379267  1
  O  O27  4  -0.04133544  0.47716634  0.12016901  1
  O  O28  4  -0.03380781  0.92255096  0.36516751  1
  O  O29  4  0.01271939  0.78529455  0.50786893  1
  O  O30  4  0.15660831  0.44323708  -0.02197569  1
  O  O31  4  0.18679018  0.31079795  0.62261203  1
  O  O32  4  0.19644862  0.81751375  -0.38825893  1
  O  O33  4  0.21720913  0.95366455  -0.22127621  1
  O  O34  4  0.22092475  0.52963824  -0.22571677  1
  O  O35  4  0.22507210  0.18740004  0.80335390  1
