###############################################################################################
#
# CIF file generated by modified CIFWriter class 
# in pymatgen (v2025.03.10) https://pymatgen.org/
#
###############################################################################################
data_PBE+MBD_tight_6dff3a589f504f9
_symmetry_space_group_name_H-M   P2/c
_cell_length_a   25.59291849
_cell_length_b   8.82268182
_cell_length_c   7.86218966
_cell_angle_alpha   90.00000000
_cell_angle_beta   90.00000000
_cell_angle_gamma   83.58748478
_symmetry_Int_Tables_number   13
_chemical_formula_moiety   'C6 H6 N12 O12'
_chemical_formula_sum   'H24 C24 N48 O48'
_cell_volume   1764.16120889
_cell_formula_units_Z   4
loop_
 _symmetry_equiv_pos_site_id
 _symmetry_equiv_pos_as_xyz
  1  'x, y, z'
  2  '-x, -y, -z'
  3  '-x+1/2, -y, z'
  4  'x+1/2, y, -z'
loop_
 _atom_site_type_symbol
 _atom_site_label
 _atom_site_symmetry_multiplicity
 _atom_site_fract_x
 _atom_site_fract_y
 _atom_site_fract_z
 _atom_site_occupancy
  H  H0  4  0.06268426  0.38292467  1.13905522  1
  H  H1  4  0.06413071  0.12407543  1.03170971  1
  H  H2  4  0.07265006  0.40045395  0.62577635  1
  H  H3  4  0.16570407  0.39054635  0.58180312  1
  H  H4  4  0.22414634  0.36151366  1.06693068  1
  H  H5  4  0.22570407  0.10632877  0.96355539  1
  C  C6  4  0.09245542  0.35646235  1.04053245  1
  C  C7  4  0.09353178  0.18686008  0.97006197  1
  C  C8  4  0.09458735  0.35703498  0.73805799  1
  C  C9  4  0.15700889  0.35002502  0.70865033  1
  C  C10  4  0.18825001  0.34391013  0.99801526  1
  C  C11  4  0.18914871  0.17499613  0.92872818  1
  N  N12  4  0.03364101  0.15492445  0.72525793  1
  N  N13  4  0.04255616  0.57370675  0.88699116  1
  N  N14  4  0.08150040  0.44974276  0.88853553  1
  N  N15  4  0.08244017  0.20623377  0.78803005  1
  N  N16  4  0.14353340  0.37545259  1.10866251  1
  N  N17  4  0.14501724  0.10629460  0.99529373  1
  N  N18  4  0.14846126  0.44175196  1.27007722  1
  N  N19  4  0.15278660  -0.02182702  1.10686156  1
  N  N20  4  0.17375284  0.59068533  0.84264989  1
  N  N21  4  0.18150146  0.08141072  0.63121898  1
  N  N22  4  0.18304049  0.43205970  0.83861728  1
  N  N23  4  0.18458533  0.20103348  0.74486216  1
  O  O24  4  0.01603146  0.21597725  0.59561460  1
  O  O25  4  0.01814795  0.05073173  0.80519930  1
  O  O26  4  0.02538431  0.61810506  0.74844449  1
  O  O27  4  0.03039160  0.62913295  1.02730374  1
  O  O28  4  0.10748284  0.47299169  1.34944354  1
  O  O29  4  0.11310979  -0.07093519  1.15844855  1
  O  O30  4  0.15248711  0.65247229  0.71759942  1
  O  O31  4  0.16446109  0.11752676  0.48903886  1
  O  O32  4  0.18907630  0.65160157  0.97141332  1
  O  O33  4  0.19311535  0.45644629  1.31758859  1
  O  O34  4  0.19720760  -0.04607591  0.68376536  1
  O  O35  4  0.19852122  -0.06824536  1.13816279  1
