###############################################################################################
#
# CIF file generated by modified CIFWriter class 
# in pymatgen (v2025.03.10) https://pymatgen.org/
#
###############################################################################################
data_PBE+MBD_tight_6eb8a6684aa1070
_symmetry_space_group_name_H-M   P222_1
_cell_length_a   10.60634089
_cell_length_b   15.20350530
_cell_length_c   11.01948357
_cell_angle_alpha   90.00000000
_cell_angle_beta   90.00000000
_cell_angle_gamma   90.00000000
_symmetry_Int_Tables_number   17
_chemical_formula_moiety   'C6 H6 N12 O12'
_chemical_formula_sum   'H24 C24 N48 O48'
_cell_volume   1776.93095488
_cell_formula_units_Z   4
loop_
 _symmetry_equiv_pos_site_id
 _symmetry_equiv_pos_as_xyz
  1  'x, y, z'
  2  '-x, -y, z+1/2'
  3  'x, -y, -z'
  4  '-x, y, -z+1/2'
loop_
 _atom_site_type_symbol
 _atom_site_label
 _atom_site_symmetry_multiplicity
 _atom_site_fract_x
 _atom_site_fract_y
 _atom_site_fract_z
 _atom_site_occupancy
  H  H0  4  0.06203661  0.31830241  0.61334848  1
  H  H1  4  0.11801091  0.37297569  0.41061195  1
  H  H2  4  0.14387425  0.10562348  0.40850622  1
  H  H3  4  0.36029098  0.08056966  0.45227645  1
  H  H4  4  0.44278987  0.28315644  0.68437070  1
  H  H5  4  0.49650575  0.32743434  0.48265267  1
  C  C6  4  0.14617174  0.28654861  0.57584821  1
  C  C7  4  0.18088985  0.32116052  0.44337777  1
  C  C8  4  0.18729240  0.16408957  0.44834044  1
  C  C9  4  0.33312045  0.14739223  0.47734529  1
  C  C10  4  0.37055687  0.26337585  0.61969376  1
  C  C11  4  0.40496380  0.29437718  0.48674126  1
  N  N12  4  -0.00309107  0.15860036  0.57670934  1
  N  N13  4  0.12471576  0.19127491  0.55997397  1
  N  N14  4  0.14465842  0.23911571  0.24930347  1
  N  N15  4  0.16948585  0.24123770  0.37289200  1
  N  N16  4  0.23982517  0.34705959  0.76660045  1
  N  N17  4  0.25175017  0.30060799  0.65539769  1
  N  N18  4  0.30915660  0.35322358  0.44475541  1
  N  N19  4  0.33850790  0.11128486  0.69759778  1
  N  N20  4  0.34217676  0.43287637  0.38670656  1
  N  N21  4  0.36543253  0.16812177  0.60278112  1
  N  N22  4  0.40951411  0.21232477  0.41416615  1
  N  N23  4  0.46093284  0.18311157  1.11119047  1
  O  O24  4  -0.07280238  0.20541728  0.63637814  1
  O  O25  4  -0.02357124  0.08600102  0.53567931  1
  O  O26  4  0.13261807  0.31107123  0.19977933  1
  O  O27  4  0.13570965  0.16611333  0.20309496  1
  O  O28  4  0.13660646  0.37853199  0.78762873  1
  O  O29  4  0.25379004  0.52035396  0.64452425  1
  O  O30  4  0.30046119  0.03773410  0.66864702  1
  O  O31  4  0.33530017  0.35190256  0.82857490  1
  O  O32  4  0.35852437  0.13923858  0.80009071  1
  O  O33  4  0.38552971  0.24254134  1.12682620  1
  O  O34  4  0.44465085  0.10440918  1.12132064  1
  O  O35  4  0.45460276  0.44861260  0.37748041  1
