###############################################################################################
#
# CIF file generated by modified CIFWriter class 
# in pymatgen (v2025.03.10) https://pymatgen.org/
#
###############################################################################################
data_PBE+MBD_tight_6f4f5cc694c646a
_symmetry_space_group_name_H-M   Pcc2
_cell_length_a   21.17325027
_cell_length_b   13.26572120
_cell_length_c   8.06229280
_cell_angle_alpha   90.00000000
_cell_angle_beta   90.00000000
_cell_angle_gamma   90.00000000
_symmetry_Int_Tables_number   27
_chemical_formula_moiety   'C6 H6 N12 O12'
_chemical_formula_sum   'H24 C24 N48 O48'
_cell_volume   2264.52418295
_cell_formula_units_Z   4
loop_
 _symmetry_equiv_pos_site_id
 _symmetry_equiv_pos_as_xyz
  1  'x, y, z'
  2  '-x, -y, z'
  3  'x, -y, z+1/2'
  4  '-x, y, z+1/2'
loop_
 _atom_site_type_symbol
 _atom_site_label
 _atom_site_symmetry_multiplicity
 _atom_site_fract_x
 _atom_site_fract_y
 _atom_site_fract_z
 _atom_site_occupancy
  H  H0  4  0.13344756  0.17585747  1.02477786  1
  H  H1  4  0.14524229  0.35215951  1.06013883  1
  H  H2  4  0.16044366  0.13844759  0.53574716  1
  H  H3  4  0.18071970  0.44861610  0.58600338  1
  H  H4  4  0.26252033  0.11400875  0.66788494  1
  H  H5  4  0.28337927  0.42220189  0.71896442  1
  C  C6  4  0.15799294  0.20913721  0.91895469  1
  C  C7  4  0.16603446  0.32813449  0.94240057  1
  C  C8  4  0.17069812  0.19602286  0.62899248  1
  C  C9  4  0.18273509  0.37977701  0.66016622  1
  C  C10  4  0.23723455  0.17966955  0.71626622  1
  C  C11  4  0.24917988  0.36279497  0.74667312  1
  N  N12  4  0.07485594  0.39068734  0.78067255  1
  N  N13  4  0.07768202  0.11074759  0.76002884  1
  N  N14  4  0.12492890  0.19107214  0.76390694  1
  N  N15  4  0.14063989  0.38465913  0.80350788  1
  N  N16  4  0.14386355  0.30832127  0.39463338  1
  N  N17  4  0.17071218  0.29445208  0.55255564  1
  N  N18  4  0.22052616  0.16435482  0.89261135  1
  N  N19  4  0.23106784  0.36306952  0.92381621  1
  N  N20  4  0.23114440  0.06660207  0.96143668  1
  N  N21  4  0.27490432  0.26818805  0.69421297  1
  N  N22  4  0.27667467  0.33974005  1.04379512  1
  N  N23  4  0.33945959  0.26120516  0.63820410  1
  O  O24  4  0.04257923  0.36631705  0.89979232  1
  O  O25  4  0.05164625  0.09408424  0.89137104  1
  O  O26  4  0.05788458  0.42157929  0.64504689  1
  O  O27  4  0.06783363  0.07426533  0.62413157  1
  O  O28  4  0.12641157  0.23217969  0.32218547  1
  O  O29  4  0.14281576  0.39492426  0.34191874  1
  O  O30  4  0.19843208  0.04419314  1.08176721  1
  O  O31  4  0.25655803  0.31288255  1.17981670  1
  O  O32  4  0.27357043  0.01682956  0.90001614  1
  O  O33  4  0.33160115  0.35227885  1.00204983  1
  O  O34  4  0.35881915  0.17616446  0.61391305  1
  O  O35  4  0.36641884  0.34130619  0.61813838  1
