###############################################################################################
#
# CIF file generated by modified CIFWriter class 
# in pymatgen (v2025.03.10) https://pymatgen.org/
#
###############################################################################################
data_PBE+MBD_tight_702cdd2286218b8
_symmetry_space_group_name_H-M   P2_1/c
_cell_length_a   13.04487631
_cell_length_b   7.84809257
_cell_length_c   15.04554934
_cell_angle_alpha   90.00000000
_cell_angle_beta   94.79530521
_cell_angle_gamma   90.00000000
_symmetry_Int_Tables_number   14
_chemical_formula_moiety   'C6 H6 N12 O12'
_chemical_formula_sum   'H24 C24 N48 O48'
_cell_volume   1534.93259798
_cell_formula_units_Z   4
loop_
 _symmetry_equiv_pos_site_id
 _symmetry_equiv_pos_as_xyz
  1  'x, y, z'
  2  '-x, -y, -z'
  3  '-x, y+1/2, -z+1/2'
  4  'x, -y+1/2, z+1/2'
loop_
 _atom_site_type_symbol
 _atom_site_label
 _atom_site_symmetry_multiplicity
 _atom_site_fract_x
 _atom_site_fract_y
 _atom_site_fract_z
 _atom_site_occupancy
  H  H0  4  0.03989180  0.86866742  0.78628721  1
  H  H1  4  0.06912664  1.16066913  0.82916262  1
  H  H2  4  0.27597889  0.77902145  0.47349455  1
  H  H3  4  0.29987187  0.47834849  0.17439149  1
  H  H4  4  0.30641696  1.01448293  1.01514018  1
  H  H5  4  0.43519199  0.56584097  0.28333988  1
  C  C6  4  0.12079372  0.60578133  0.30660809  1
  C  C7  4  0.14048274  1.08718875  0.83409939  1
  C  C8  4  0.26045408  0.69266154  0.41695399  1
  C  C9  4  0.27002346  0.99691676  0.73891067  1
  C  C10  4  0.28111340  1.00064065  0.94428432  1
  C  C11  4  0.36070117  0.93823889  0.81162677  1
  N  N12  4  0.09688811  0.64294408  0.90397209  1
  N  N13  4  0.13304733  1.16069619  0.99402557  1
  N  N14  4  0.15426962  0.70950532  0.38268386  1
  N  N15  4  0.18074221  0.75907122  0.17445656  1
  N  N16  4  0.18550089  0.62316748  0.23235209  1
  N  N17  4  0.18920396  1.10029569  0.92374527  1
  N  N18  4  0.21151335  0.35957217  0.26910261  1
  N  N19  4  0.25069344  1.30436907  0.76972504  1
  N  N20  4  0.33153756  0.77494856  0.84818840  1
  N  N21  4  0.36072140  1.05384703  0.88753996  1
  N  N22  4  0.40866766  0.64551007  0.86540346  1
  N  N23  4  0.45319530  1.12565887  0.92588093  1
  O  O24  4  0.01636516  0.61888039  0.85840280  1
  O  O25  4  0.04288970  1.19619072  0.97397252  1
  O  O26  4  0.10612588  0.85339664  0.17681453  1
  O  O27  4  0.13300959  0.56011340  0.96747230  1
  O  O28  4  0.18107461  1.17284714  1.06694415  1
  O  O29  4  0.19955680  0.08818495  0.30549649  1
  O  O30  4  0.25138231  0.72903040  0.62554845  1
  O  O31  4  0.33025867  1.32572078  0.73336800  1
  O  O32  4  0.38898678  0.53598790  0.91888658  1
  O  O33  4  0.45112502  1.17818363  1.00255438  1
  O  O34  4  0.47559082  0.63382039  0.62158980  1
  O  O35  4  0.48257532  0.84573623  0.32112607  1
