###############################################################################################
#
# CIF file generated by modified CIFWriter class 
# in pymatgen (v2025.03.10) https://pymatgen.org/
#
###############################################################################################
data_PBE+MBD_tight_70abb5664410cdb
_symmetry_space_group_name_H-M   Pna2_1
_cell_length_a   15.50944797
_cell_length_b   7.91135984
_cell_length_c   12.60370155
_cell_angle_alpha   90.00000000
_cell_angle_beta   90.00000000
_cell_angle_gamma   90.00000000
_symmetry_Int_Tables_number   33
_chemical_formula_moiety   'C6 H6 N12 O12'
_chemical_formula_sum   'H24 C24 N48 O48'
_cell_volume   1546.48456358
_cell_formula_units_Z   4
loop_
 _symmetry_equiv_pos_site_id
 _symmetry_equiv_pos_as_xyz
  1  'x, y, z'
  2  '-x, -y, z+1/2'
  3  '-x+1/2, y+1/2, z+1/2'
  4  'x+1/2, -y+1/2, z'
loop_
 _atom_site_type_symbol
 _atom_site_label
 _atom_site_symmetry_multiplicity
 _atom_site_fract_x
 _atom_site_fract_y
 _atom_site_fract_z
 _atom_site_occupancy
  H  H0  4  0.00048233  -0.18463016  1.04071032  1
  H  H1  4  0.06667219  -0.05538572  0.73140072  1
  H  H2  4  0.14292988  -0.30025910  1.06888271  1
  H  H3  4  0.16527443  0.21568521  1.08014362  1
  H  H4  4  0.20429899  0.28504710  0.90305474  1
  H  H5  4  0.20922540  -0.17039349  0.75916893  1
  C  C6  4  0.04993805  -0.11559661  0.99676027  1
  C  C7  4  0.08901612  -0.03861638  0.81298836  1
  C  C8  4  0.14318487  -0.19147387  1.01529865  1
  C  C9  4  0.15061283  0.11141937  1.02614973  1
  C  C10  4  0.17652563  0.15845228  0.90661115  1
  C  C11  4  0.18248201  -0.11449912  0.83141081  1
  N  N12  4  -0.03683109  -0.22433071  0.84607800  1
  N  N13  4  -0.00590403  0.17366402  1.02962065  1
  N  N14  4  0.02827508  -0.11600678  0.88521716  1
  N  N15  4  0.06133425  0.05733820  1.03545423  1
  N  N16  4  0.06463580  0.26987198  0.78018874  1
  N  N17  4  0.10114999  0.13840790  0.83935447  1
  N  N18  4  0.17716513  -0.24148847  0.91293581  1
  N  N19  4  0.18844311  -0.04654875  1.06114381  1
  N  N20  4  0.20222445  0.59185569  0.28793166  1
  N  N21  4  0.22669045  0.44522818  0.59539313  1
  N  N22  4  0.23129500  -0.38557917  0.90595360  1
  N  N23  4  0.23554534  0.03014297  0.86538140  1
  O  O24  4  -0.07875558  0.11289477  1.03269355  1
  O  O25  4  -0.07738484  -0.30451680  0.91227029  1
  O  O26  4  -0.04657151  -0.22483089  0.74992214  1
  O  O27  4  0.01080774  0.22692721  0.71426752  1
  O  O28  4  0.01471799  0.32289176  1.02480843  1
  O  O29  4  0.08768715  0.41304741  0.80282224  1
  O  O30  4  0.17413756  0.73298232  0.30468754  1
  O  O31  4  0.18186432  0.49380531  0.21762773  1
  O  O32  4  0.18988782  0.58043731  0.60848007  1
  O  O33  4  0.19834462  0.30214526  0.61089780  1
  O  O34  4  0.22693581  0.09944960  0.32449035  1
  O  O35  4  0.22787249  -0.48364281  0.98080190  1
