###############################################################################################
#
# CIF file generated by modified CIFWriter class 
# in pymatgen (v2025.03.10) https://pymatgen.org/
#
###############################################################################################
data_PBE+MBD_tight_75dc20355e8dc40
_symmetry_space_group_name_H-M   P2_1/c
_cell_length_a   7.62967846
_cell_length_b   14.91430341
_cell_length_c   15.42629448
_cell_angle_alpha   90.00000000
_cell_angle_beta   96.13459065
_cell_angle_gamma   90.00000000
_symmetry_Int_Tables_number   14
_chemical_formula_moiety   'C6 H6 N12 O12'
_chemical_formula_sum   'H24 C24 N48 O48'
_cell_volume   1745.32672683
_cell_formula_units_Z   4
loop_
 _symmetry_equiv_pos_site_id
 _symmetry_equiv_pos_as_xyz
  1  'x, y, z'
  2  '-x, -y, -z'
  3  '-x, y+1/2, -z+1/2'
  4  'x, -y+1/2, z+1/2'
loop_
 _atom_site_type_symbol
 _atom_site_label
 _atom_site_symmetry_multiplicity
 _atom_site_fract_x
 _atom_site_fract_y
 _atom_site_fract_z
 _atom_site_occupancy
  H  H0  4  0.21904976  0.17921704  0.45263899  1
  H  H1  4  0.30926746  0.85422395  0.31718386  1
  H  H2  4  0.38638760  0.35396353  0.21567713  1
  H  H3  4  0.40878518  0.07610159  0.02240838  1
  H  H4  4  0.47809502  0.68307268  1.07923404  1
  H  H5  4  0.49046389  0.59547455  0.32733857  1
  C  C6  4  0.30689699  0.20874793  0.50566423  1
  C  C7  4  0.39291986  0.80993679  0.36021410  1
  C  C8  4  0.40792540  0.31182099  0.15989583  1
  C  C9  4  0.42533972  0.14706332  0.03861669  1
  C  C10  4  0.49245402  0.16020910  0.13977162  1
  C  C11  4  0.49379054  0.71240058  1.01566179  1
  N  N12  4  0.11686259  0.15642939  -0.03175774  1
  N  N13  4  0.14496228  0.10627991  0.59525160  1
  N  N14  4  0.18301566  0.68198320  0.35535127  1
  N  N15  4  0.26352756  0.19692642  0.01832005  1
  N  N16  4  0.30275248  0.15609706  0.58373606  1
  N  N17  4  0.32660446  0.19604593  0.26335994  1
  N  N18  4  0.33398301  0.57540055  0.96806922  1
  N  N19  4  0.34983961  0.71575504  0.34545704  1
  N  N20  4  0.36848989  0.28283681  0.67919631  1
  N  N21  4  0.37760585  0.66595885  0.95027182  1
  N  N22  4  0.41533268  0.84986831  1.09265933  1
  N  N23  4  0.45005497  0.69179278  0.51323739  1
  O  O24  4  -0.00209421  0.29238392  0.44190514  1
  O  O25  4  0.04114573  0.40155071  0.03022085  1
  O  O26  4  0.06294078  0.73706027  0.35039685  1
  O  O27  4  0.12202112  0.07504709  -0.03935908  1
  O  O28  4  0.13700157  0.42523621  0.16752648  1
  O  O29  4  0.17338171  0.60070313  0.36555194  1
  O  O30  4  0.26027627  0.25672703  0.30270243  1
  O  O31  4  0.28384572  0.52895309  0.90536366  1
  O  O32  4  0.34753551  0.94578422  0.54517595  1
  O  O33  4  0.35371014  0.11894768  0.28860684  1
  O  O34  4  0.36729372  0.80064671  1.14895754  1
  O  O35  4  0.42944268  0.93160453  1.09563649  1
