###############################################################################################
#
# CIF file generated by modified CIFWriter class 
# in pymatgen (v2025.03.10) https://pymatgen.org/
#
###############################################################################################
data_PBE+MBD_tight_7a10d645e5bf90e
_symmetry_space_group_name_H-M   P2/c
_cell_length_a   15.55419040
_cell_length_b   8.83572703
_cell_length_c   12.78547455
_cell_angle_alpha   90.00000000
_cell_angle_beta   73.90481171
_cell_angle_gamma   90.00000000
_symmetry_Int_Tables_number   13
_chemical_formula_moiety   'C6 H6 N12 O12'
_chemical_formula_sum   'H24 C24 N48 O48'
_cell_volume   1688.26513079
_cell_formula_units_Z   4
loop_
 _symmetry_equiv_pos_site_id
 _symmetry_equiv_pos_as_xyz
  1  'x, y, z'
  2  '-x, -y, -z'
  3  '-x, y, -z+1/2'
  4  'x, -y, z+1/2'
loop_
 _atom_site_type_symbol
 _atom_site_label
 _atom_site_symmetry_multiplicity
 _atom_site_fract_x
 _atom_site_fract_y
 _atom_site_fract_z
 _atom_site_occupancy
  H  H0  4  0.11028527  0.79628700  0.18563608  1
  H  H1  4  0.24137871  0.29022168  0.73595206  1
  H  H2  4  0.25388085  0.46220084  0.43978608  1
  H  H3  4  0.26507434  -0.11993191  0.48268457  1
  H  H4  4  0.34216949  0.27948128  0.31964166  1
  H  H5  4  0.39625332  -0.03248794  0.53063789  1
  C  C6  4  0.17162653  0.19255496  0.61888052  1
  C  C7  4  0.25597652  0.35514299  0.48169009  1
  C  C8  4  0.25744419  0.24974305  0.65195420  1
  C  C9  4  0.26301171  0.00151493  0.49926535  1
  C  C10  4  0.31578249  0.23239503  0.40136542  1
  C  C11  4  0.34870885  0.05875370  0.53082022  1
  N  N12  4  0.09337634  0.40243782  0.55114102  1
  N  N13  4  0.10708753  -0.05940551  0.60030773  1
  N  N14  4  0.16685116  0.29191386  0.52802800  1
  N  N15  4  0.18509674  0.03627349  0.58711229  1
  N  N16  4  0.20440549  0.07848798  0.34393136  1
  N  N17  4  0.26853816  0.90884718  -0.09971665  1
  N  N18  4  0.29187167  0.37360955  0.57526095  1
  N  N19  4  0.29796602  0.52179950  0.61738861  1
  N  N20  4  0.32052184  0.12685943  0.63755999  1
  N  N21  4  0.37396055  0.89123829  0.21052148  1
  N  N22  4  0.38569171  0.83031454  -0.05595053  1
  N  N23  4  0.45950071  0.25711447  0.44547150  1
  O  O24  4  0.02913800  0.37220361  0.62733650  1
  O  O25  4  0.03520637  0.00222084  0.63816274  1
  O  O26  4  0.10354495  0.49237476  -0.01232899  1
  O  O27  4  0.12253603  -0.19123553  0.57517229  1
  O  O28  4  0.16165107  -0.04054279  0.35772976  1
  O  O29  4  0.19926698  0.18352593  0.28344824  1
  O  O30  4  0.30205759  0.47337804  0.21151607  1
  O  O31  4  0.30335663  0.37363659  0.05366952  1
  O  O32  4  0.36038178  0.19852069  0.78625310  1
  O  O33  4  0.42487022  0.00072422  0.69327612  1
  O  O34  4  0.47425366  0.63236644  -0.11472624  1
  O  O35  4  0.49651665  0.78742649  0.49405998  1
