###############################################################################################
#
# CIF file generated by modified CIFWriter class 
# in pymatgen (v2025.03.10) https://pymatgen.org/
#
###############################################################################################
data_PBE+MBD_tight_7b096761f48814b
_symmetry_space_group_name_H-M   P2/c
_cell_length_a   14.57998361
_cell_length_b   13.87381183
_cell_length_c   8.46738874
_cell_angle_alpha   90.00000000
_cell_angle_beta   95.81405310
_cell_angle_gamma   90.00000000
_symmetry_Int_Tables_number   13
_chemical_formula_moiety   'C6 H6 N12 O12'
_chemical_formula_sum   'H24 C24 N48 O48'
_cell_volume   1703.97222386
_cell_formula_units_Z   4
loop_
 _symmetry_equiv_pos_site_id
 _symmetry_equiv_pos_as_xyz
  1  'x, y, z'
  2  '-x, -y, -z'
  3  '-x, y, -z+1/2'
  4  'x, -y, z+1/2'
loop_
 _atom_site_type_symbol
 _atom_site_label
 _atom_site_symmetry_multiplicity
 _atom_site_fract_x
 _atom_site_fract_y
 _atom_site_fract_z
 _atom_site_occupancy
  H  H0  4  0.09928514  0.91479802  0.04913980  1
  H  H1  4  0.14348336  0.33895208  0.79587861  1
  H  H2  4  0.23030744  0.56961136  0.12623455  1
  H  H3  4  0.23561143  0.06373463  0.73087846  1
  H  H4  4  0.25031706  0.74935046  -0.24312770  1
  H  H5  4  0.38823947  0.22795780  0.44452308  1
  C  C6  4  0.14434799  0.85177319  0.05372515  1
  C  C7  4  0.17264670  0.70795800  0.21002665  1
  C  C8  4  0.23170197  0.35377144  0.59679300  1
  C  C9  4  0.23405130  0.13375413  0.67257516  1
  C  C10  4  0.23479753  0.75406566  -0.11953995  1
  C  C11  4  0.32437331  0.76944101  0.00216832  1
  N  N12  4  0.02492724  0.72485328  0.03879775  1
  N  N13  4  0.10239193  0.23264239  0.62131439  1
  N  N14  4  0.15409918  0.09928465  0.27596938  1
  N  N15  4  0.16970517  0.16842038  0.39579254  1
  N  N16  4  0.18555463  0.41458671  0.32341417  1
  N  N17  4  0.19566389  0.33574365  0.43249428  1
  N  N18  4  0.22461824  0.21236892  0.78592534  1
  N  N19  4  0.29367207  0.22897388  0.90982255  1
  N  N20  4  0.31299932  0.14159524  0.58462035  1
  N  N21  4  0.32495826  0.68518042  0.10822393  1
  N  N22  4  0.39111129  0.92193458  0.12252530  1
  N  N23  4  0.40007508  0.38350126  0.60494061  1
  O  O24  4  -0.02060421  0.77739413  -0.05563900  1
  O  O25  4  0.00914120  0.64106334  0.07316151  1
  O  O26  4  0.10586701  0.97005970  -0.19513236  1
  O  O27  4  0.17767386  0.39305202  0.18322389  1
  O  O28  4  0.18172374  0.49468300  0.38254954  1
  O  O29  4  0.18961581  0.88642354  -0.34693802  1
  O  O30  4  0.29343633  0.30851698  0.97272987  1
  O  O31  4  0.34516230  0.16095070  0.94490354  1
  O  O32  4  0.37600270  0.00679594  0.69916015  1
  O  O33  4  0.38503523  0.46407033  0.65285176  1
  O  O34  4  0.46164186  0.89811220  0.06786876  1
  O  O35  4  0.47136598  0.35097454  0.56276612  1
