###############################################################################################
#
# CIF file generated by modified CIFWriter class 
# in pymatgen (v2025.03.10) https://pymatgen.org/
#
###############################################################################################
data_PBE+MBD_tight_7e0610b39cb9e5f
_symmetry_space_group_name_H-M   P2_1/c
_cell_length_a   7.29682707
_cell_length_b   14.03844208
_cell_length_c   17.46958921
_cell_angle_alpha   90.00000000
_cell_angle_beta   116.24953650
_cell_angle_gamma   90.00000000
_symmetry_Int_Tables_number   14
_chemical_formula_moiety   'C6 H6 N12 O12'
_chemical_formula_sum   'H24 C24 N48 O48'
_cell_volume   1604.97480248
_cell_formula_units_Z   4
loop_
 _symmetry_equiv_pos_site_id
 _symmetry_equiv_pos_as_xyz
  1  'x, y, z'
  2  '-x, -y, -z'
  3  '-x, y+1/2, -z+1/2'
  4  'x, -y+1/2, z+1/2'
loop_
 _atom_site_type_symbol
 _atom_site_label
 _atom_site_symmetry_multiplicity
 _atom_site_fract_x
 _atom_site_fract_y
 _atom_site_fract_z
 _atom_site_occupancy
  H  H0  4  -0.01048376  0.19496872  0.22328761  1
  H  H1  4  0.09182499  0.19507142  0.37734442  1
  H  H2  4  0.23390273  0.65335223  0.13995543  1
  H  H3  4  0.44091989  0.10210142  0.76288650  1
  H  H4  4  0.46122134  0.60336816  0.58475069  1
  H  H5  4  0.49723780  0.96010498  0.66402027  1
  C  C6  4  0.15279948  0.20837505  0.26195210  1
  C  C7  4  0.21852275  0.29189717  0.86140258  1
  C  C8  4  0.37679019  0.68925830  0.15191727  1
  C  C9  4  0.42181840  0.17214408  0.78522840  1
  C  C10  4  0.44745737  0.11278969  0.33246913  1
  C  C11  4  0.48565577  0.17278145  0.88502584  1
  N  N12  4  0.06511241  0.12630125  0.72195715  1
  N  N13  4  0.17512390  0.05505209  0.19441865  1
  N  N14  4  0.20803947  0.29885425  0.23642917  1
  N  N15  4  0.24274455  0.73102054  -0.00066085  1
  N  N16  4  0.25894175  0.15475092  0.95775808  1
  N  N17  4  0.27499734  0.36679763  0.75007434  1
  N  N18  4  0.29348374  0.04559768  0.42137718  1
  N  N19  4  0.30846982  0.29869006  0.39601023  1
  N  N20  4  0.35029450  0.74347916  0.58517398  1
  N  N21  4  0.36680582  0.37043568  0.89428764  1
  N  N22  4  0.43898381  0.74204598  0.72121914  1
  N  N23  4  0.45176392  0.76931791  0.80044836  1
  O  O24  4  -0.09988349  0.35107903  0.21871186  1
  O  O25  4  -0.00556670  0.43568717  0.64682315  1
  O  O26  4  0.11951465  0.04628034  0.71264207  1
  O  O27  4  0.11964288  0.30927852  0.46851433  1
  O  O28  4  0.13479343  0.66005869  -0.01541913  1
  O  O29  4  0.17110323  0.43920499  0.94974562  1
  O  O30  4  0.26463337  0.71588243  0.44848673  1
  O  O31  4  0.28694966  0.51167226  0.69828524  1
  O  O32  4  0.35512201  0.08296474  0.98997207  1
  O  O33  4  0.36250876  0.65621645  0.30012497  1
  O  O34  4  0.37104215  0.52960533  0.91676338  1
  O  O35  4  0.45529519  0.28434611  0.13996953  1
