###############################################################################################
#
# CIF file generated by modified CIFWriter class 
# in pymatgen (v2025.03.10) https://pymatgen.org/
#
###############################################################################################
data_PBE+MBD_tight_8068835fc81591d
_symmetry_space_group_name_H-M   P2_1/c
_cell_length_a   8.93040054
_cell_length_b   12.77296845
_cell_length_c   14.08908474
_cell_angle_alpha   90.00000000
_cell_angle_beta   68.51067155
_cell_angle_gamma   90.00000000
_symmetry_Int_Tables_number   14
_chemical_formula_moiety   'C6 H6 N12 O12'
_chemical_formula_sum   'H24 C24 N48 O48'
_cell_volume   1495.39290260
_cell_formula_units_Z   4
loop_
 _symmetry_equiv_pos_site_id
 _symmetry_equiv_pos_as_xyz
  1  'x, y, z'
  2  '-x, -y, -z'
  3  '-x, y+1/2, -z+1/2'
  4  'x, -y+1/2, z+1/2'
loop_
 _atom_site_type_symbol
 _atom_site_label
 _atom_site_symmetry_multiplicity
 _atom_site_fract_x
 _atom_site_fract_y
 _atom_site_fract_z
 _atom_site_occupancy
  H  H0  4  -0.06240392  0.61711031  0.80438007  1
  H  H1  4  0.06657872  1.03275402  0.35020201  1
  H  H2  4  0.30616731  0.68962858  0.31438074  1
  H  H3  4  0.32081837  0.96647954  0.04905592  1
  H  H4  4  0.43202971  0.83827038  0.36224223  1
  H  H5  4  0.46914584  0.35518514  0.44123760  1
  C  C6  4  0.06890910  0.87716039  0.27444418  1
  C  C7  4  0.15271460  0.97511469  0.30376300  1
  C  C8  4  0.28629048  0.76274466  0.28047063  1
  C  C9  4  0.29110359  0.93523332  0.12597589  1
  C  C10  4  0.37010146  0.85991882  0.31089492  1
  C  C11  4  0.43164687  0.86056783  0.13243237  1
  N  N12  4  0.00420723  0.79966655  0.85045659  1
  N  N13  4  0.10910310  0.80336483  0.10277086  1
  N  N14  4  0.11667922  0.78406177  0.31388246  1
  N  N15  4  0.13549576  0.88315108  0.16189445  1
  N  N16  4  0.23153566  0.98012173  0.45528244  1
  N  N17  4  0.24923172  1.01725201  0.20249923  1
  N  N18  4  0.25159578  0.93944504  0.35810391  1
  N  N19  4  0.34590413  0.39373531  0.30555841  1
  N  N20  4  0.35346530  1.09974088  0.19294808  1
  N  N21  4  0.36203656  0.75812909  0.16847179  1
  N  N22  4  0.45974493  0.66826632  0.12387264  1
  N  N23  4  0.48430159  0.89828894  0.21295057  1
  O  O24  4  -0.13740115  0.77543961  0.87817383  1
  O  O25  4  0.00111741  0.74143652  0.14648629  1
  O  O26  4  0.06126519  0.61391456  0.35312369  1
  O  O27  4  0.13979390  1.05447864  0.48457335  1
  O  O28  4  0.19529633  0.80443386  0.01191037  1
  O  O29  4  0.25660913  0.40441999  0.39451554  1
  O  O30  4  0.30636635  0.93614351  0.50075634  1
  O  O31  4  0.31003131  0.38538805  0.23049410  1
  O  O32  4  0.32424803  0.34366788  0.76761626  1
  O  O33  4  0.42409606  0.58795000  0.17393102  1
  O  O34  4  0.43821287  0.18062302  0.46073322  1
  O  O35  4  0.46414456  0.39026612  0.60963282  1
