###############################################################################################
#
# CIF file generated by modified CIFWriter class 
# in pymatgen (v2025.03.10) https://pymatgen.org/
#
###############################################################################################
data_PBE+MBD_tight_84e591e7f8288ed
_symmetry_space_group_name_H-M   C2
_cell_length_a   10.04882197
_cell_length_b   12.99441701
_cell_length_c   14.27535017
_cell_angle_alpha   90.00000000
_cell_angle_beta   75.86195927
_cell_angle_gamma   90.00000000
_symmetry_Int_Tables_number   5
_chemical_formula_moiety   'C6 H6 N12 O12'
_chemical_formula_sum   'H24 C24 N48 O48'
_cell_volume   1807.59287795
_cell_formula_units_Z   4
loop_
 _symmetry_equiv_pos_site_id
 _symmetry_equiv_pos_as_xyz
  1  'x, y, z'
  2  '-x, y, -z'
  3  'x+1/2, y+1/2, z'
  4  '-x+1/2, y+1/2, -z'
loop_
 _atom_site_type_symbol
 _atom_site_label
 _atom_site_symmetry_multiplicity
 _atom_site_fract_x
 _atom_site_fract_y
 _atom_site_fract_z
 _atom_site_occupancy
  H  H0  4  -0.22145003  0.75571165  0.26909003  1
  H  H1  4  -0.02930690  0.63492475  0.22507584  1
  H  H2  4  0.02221704  0.98379929  0.10984898  1
  H  H3  4  0.05126122  0.82838330  0.43202637  1
  H  H4  4  0.18485285  0.95812952  0.34105581  1
  H  H5  4  0.21357624  0.86456510  0.06734013  1
  C  C6  4  -0.12161097  0.79283911  0.26173837  1
  C  C7  4  0.00349148  0.71403979  0.23322504  1
  C  C8  4  0.02284555  0.92813758  0.16722914  1
  C  C9  4  0.03811043  0.82617671  0.35853305  1
  C  C10  4  0.13052781  0.91457697  0.29646955  1
  C  C11  4  0.14786155  0.85001946  0.13947790  1
  N  N12  4  -0.21035559  0.89687184  0.14340449  1
  N  N13  4  -0.19476920  0.90243471  0.40946424  1
  N  N14  4  -0.10463745  0.83121003  0.35471139  1
  N  N15  4  -0.10324973  0.87133155  0.18858090  1
  N  N16  4  0.04244401  0.98036141  0.25423853  1
  N  N17  4  0.06551527  0.72442608  0.31580494  1
  N  N18  4  0.07389802  1.08854092  0.24590390  1
  N  N19  4  0.09525256  0.74680196  0.14430510  1
  N  N20  4  0.12682580  0.68033170  0.06331268  1
  N  N21  4  0.14046742  0.41366781  0.81900079  1
  N  N22  4  0.18762846  0.67348686  0.31686420  1
  N  N23  4  0.22408152  0.86654199  0.21386979  1
  O  O24  4  -0.17834639  0.95754012  0.07564758  1
  O  O25  4  -0.15462051  0.94460076  0.47489280  1
  O  O26  4  0.03418007  1.13514868  0.18397320  1
  O  O27  4  0.07844746  0.59416988  0.07521774  1
  O  O28  4  0.08060483  0.39442426  0.90153008  1
  O  O29  4  0.10110729  0.46278714  0.75790362  1
  O  O30  4  0.13179137  1.12301855  0.30541477  1
  O  O31  4  0.18046353  0.35432613  0.17435534  1
  O  O32  4  0.19549561  0.41336632  0.38850070  1
  O  O33  4  0.19841701  0.71727521  -0.01131635  1
  O  O34  4  0.21836318  0.60164641  0.26027678  1
  O  O35  4  0.24859109  0.70439039  0.37615815  1
