###############################################################################################
#
# CIF file generated by modified CIFWriter class 
# in pymatgen (v2025.03.10) https://pymatgen.org/
#
###############################################################################################
data_PBE+MBD_tight_87e3940e9ea2ddb
_symmetry_space_group_name_H-M   P2_1/c
_cell_length_a   15.31526878
_cell_length_b   8.16710279
_cell_length_c   14.71814501
_cell_angle_alpha   90.00000000
_cell_angle_beta   121.98869766
_cell_angle_gamma   90.00000000
_symmetry_Int_Tables_number   14
_chemical_formula_moiety   'C6 H6 N12 O12'
_chemical_formula_sum   'H24 C24 N48 O48'
_cell_volume   1561.41996020
_cell_formula_units_Z   4
loop_
 _symmetry_equiv_pos_site_id
 _symmetry_equiv_pos_as_xyz
  1  'x, y, z'
  2  '-x, -y, -z'
  3  '-x, y+1/2, -z+1/2'
  4  'x, -y+1/2, z+1/2'
loop_
 _atom_site_type_symbol
 _atom_site_label
 _atom_site_symmetry_multiplicity
 _atom_site_fract_x
 _atom_site_fract_y
 _atom_site_fract_z
 _atom_site_occupancy
  H  H0  4  0.03685012  0.43064471  0.56738400  1
  H  H1  4  0.09306864  0.71500396  0.61649688  1
  H  H2  4  0.25437227  0.21965201  0.37370285  1
  H  H3  4  0.30845887  0.01532424  0.07665978  1
  H  H4  4  0.31158294  -0.06056746  0.42474523  1
  H  H5  4  0.43322202  0.10623143  0.25691417  1
  C  C6  4  0.11942143  0.44222740  0.62478450  1
  C  C7  4  0.15572151  0.62617404  0.65816264  1
  C  C8  4  0.24795018  0.14848139  0.30742340  1
  C  C9  4  0.27598566  0.01572939  0.12728661  1
  C  C10  4  0.28450636  0.53542176  0.84076964  1
  C  C11  4  0.35910182  0.42393051  0.74718491  1
  N  N12  4  0.06455757  0.23837814  0.22042218  1
  N  N13  4  0.14291157  0.34943589  0.71803404  1
  N  N14  4  0.17096637  0.26293926  0.03657273  1
  N  N15  4  0.18006760  0.10698925  0.07901867  1
  N  N16  4  0.18257398  -0.28799702  0.31384936  1
  N  N17  4  0.19922538  0.64116431  0.77193342  1
  N  N18  4  0.23137876  -0.14216200  0.12608880  1
  N  N19  4  0.28920946  -0.28473608  0.14926450  1
  N  N20  4  0.31570889  0.21287636  0.27395512  1
  N  N21  4  0.36830690  -0.05219274  0.32086714  1
  N  N22  4  0.38006804  0.35145175  0.33146299  1
  N  N23  4  0.46523203  0.61228193  0.90075567  1
  O  O24  4  -0.01944729  0.25780735  0.63647066  1
  O  O25  4  0.08820009  0.30003440  0.30594582  1
  O  O26  4  0.09099890  0.33609742  0.00987576  1
  O  O27  4  0.11597088  0.87882891  0.74827755  1
  O  O28  4  0.23427374  0.80233949  0.91100660  1
  O  O29  4  0.24255296  0.19233948  0.52778422  1
  O  O30  4  0.25267250  -0.40639429  0.16573365  1
  O  O31  4  0.35208197  0.43255841  0.38106373  1
  O  O32  4  0.36875512  -0.27368243  0.14896392  1
  O  O33  4  0.45108149  0.12316900  0.81888059  1
  O  O34  4  0.46439876  0.40537367  0.11456895  1
  O  O35  4  0.46814375  0.68186812  0.97631497  1
