###############################################################################################
#
# CIF file generated by modified CIFWriter class 
# in pymatgen (v2025.03.10) https://pymatgen.org/
#
###############################################################################################
data_PBE+MBD_tight_8abac44ff85b989
_symmetry_space_group_name_H-M   Pna2_1
_cell_length_a   16.58671551
_cell_length_b   7.07288921
_cell_length_c   13.96051585
_cell_angle_alpha   90.00000000
_cell_angle_beta   90.00000000
_cell_angle_gamma   90.00000000
_symmetry_Int_Tables_number   33
_chemical_formula_moiety   'C6 H6 N12 O12'
_chemical_formula_sum   'H24 C24 N48 O48'
_cell_volume   1637.79189216
_cell_formula_units_Z   4
loop_
 _symmetry_equiv_pos_site_id
 _symmetry_equiv_pos_as_xyz
  1  'x, y, z'
  2  '-x, -y, z+1/2'
  3  '-x+1/2, y+1/2, z+1/2'
  4  'x+1/2, -y+1/2, z'
loop_
 _atom_site_type_symbol
 _atom_site_label
 _atom_site_symmetry_multiplicity
 _atom_site_fract_x
 _atom_site_fract_y
 _atom_site_fract_z
 _atom_site_occupancy
  H  H0  4  0.08151423  0.43566001  0.34670790  1
  H  H1  4  0.11243538  0.43604544  0.63222977  1
  H  H2  4  0.16468759  0.23044739  0.92685308  1
  H  H3  4  0.18969767  0.71485009  0.65874133  1
  H  H4  4  0.20041370  0.24832639  0.37479803  1
  H  H5  4  0.21873039  0.91943730  0.38598249  1
  C  C6  4  0.12245976  0.50175367  0.39818486  1
  C  C7  4  0.14089792  0.48435026  0.56600834  1
  C  C8  4  0.19306855  0.67187194  0.58365298  1
  C  C9  4  0.19971136  0.37618594  0.41858484  1
  C  C10  4  0.20211141  0.78844477  0.42237803  1
  C  C11  4  0.22153141  0.16343505  0.94757256  1
  N  N12  4  0.00590597  0.41232383  0.50061136  1
  N  N13  4  0.08156642  0.52044137  0.49189022  1
  N  N14  4  0.09719174  0.92015829  0.53268211  1
  N  N15  4  0.09771380  0.78151766  0.29567793  1
  N  N16  4  0.14925685  0.68080250  0.36162500  1
  N  N17  4  0.16192353  0.24322658  1.10508165  1
  N  N18  4  0.16269615  -0.09356940  0.84861146  1
  N  N19  4  0.16981670  0.82434083  0.51890280  1
  N  N20  4  0.18845535  0.33487468  0.52080125  1
  N  N21  4  0.22433037  0.13957394  1.05298283  1
  N  N22  4  0.22867793  -0.01546731  0.90020301  1
  N  N23  4  0.24466908  0.23194880  0.57211538  1
  O  O24  4  -0.03273268  0.39881865  0.42695455  1
  O  O25  4  -0.01111173  0.35858982  0.58047004  1
  O  O26  4  0.03607635  0.70072176  0.27273227  1
  O  O27  4  0.06612128  0.90415267  0.61162902  1
  O  O28  4  0.07385332  1.01656570  0.46465290  1
  O  O29  4  0.09798392  0.25781958  1.06345782  1
  O  O30  4  0.10287119  0.00522116  0.84213073  1
  O  O31  4  0.12350698  0.93329437  0.26791126  1
  O  O32  4  0.17407250  -0.25050105  0.81409452  1
  O  O33  4  0.17924886  0.29464859  1.18571403  1
  O  O34  4  0.20753535  -0.36237894  1.02457583  1
  O  O35  4  0.23938613  0.23964130  0.65986962  1
