###############################################################################################
#
# CIF file generated by modified CIFWriter class 
# in pymatgen (v2025.03.10) https://pymatgen.org/
#
###############################################################################################
data_PBE+MBD_tight_8e4edc9253d9e30
_symmetry_space_group_name_H-M   P2_12_12_1
_cell_length_a   16.01013963
_cell_length_b   12.62488424
_cell_length_c   7.91080138
_cell_angle_alpha   90.00000000
_cell_angle_beta   90.00000000
_cell_angle_gamma   90.00000000
_symmetry_Int_Tables_number   19
_chemical_formula_moiety   'C6 H6 N12 O12'
_chemical_formula_sum   'H24 C24 N48 O48'
_cell_volume   1598.97990115
_cell_formula_units_Z   4
loop_
 _symmetry_equiv_pos_site_id
 _symmetry_equiv_pos_as_xyz
  1  'x, y, z'
  2  'x+1/2, -y+1/2, -z'
  3  '-x+1/2, -y, z+1/2'
  4  '-x, y+1/2, -z+1/2'
loop_
 _atom_site_type_symbol
 _atom_site_label
 _atom_site_symmetry_multiplicity
 _atom_site_fract_x
 _atom_site_fract_y
 _atom_site_fract_z
 _atom_site_occupancy
  H  H0  4  0.00252999  0.65789230  0.67693253  1
  H  H1  4  0.09052600  0.92301880  0.89807466  1
  H  H2  4  0.09925390  0.62924825  0.45053351  1
  H  H3  4  0.15218295  0.77231029  1.04406044  1
  H  H4  4  0.18173698  0.27289487  0.14874132  1
  H  H5  4  0.24034064  0.11994078  0.00369321  1
  C  C6  4  0.06046751  0.70183427  0.69692512  1
  C  C7  4  0.11319009  0.86192544  0.81146435  1
  C  C8  4  0.12479905  0.68370241  0.54462658  1
  C  C9  4  0.15314035  0.76361556  0.90682519  1
  C  C10  4  0.21304351  0.83644971  0.57685627  1
  C  C11  4  0.24847469  0.26205516  0.17342789  1
  N  N12  4  -0.03837705  0.85208491  0.73213021  1
  N  N13  4  0.04526407  0.81524598  0.71418081  1
  N  N14  4  0.04899842  0.62726426  0.98596940  1
  N  N15  4  0.09710721  0.84426801  0.36999103  1
  N  N16  4  0.10041326  0.67365802  0.85632720  1
  N  N17  4  0.15188208  0.78364816  0.46748955  1
  N  N18  4  0.17455765  0.90680486  0.69828424  1
  N  N19  4  0.18964244  1.01595640  0.69531648  1
  N  N20  4  0.20148856  0.28505251  0.46907567  1
  N  N21  4  0.20388886  0.64649120  0.60988635  1
  N  N22  4  0.23805637  0.75312565  0.85147933  1
  N  N23  4  0.24846914  0.56779090  0.51524946  1
  O  O24  4  -0.09093524  0.79775792  0.66240973  1
  O  O25  4  -0.04762848  0.93565804  0.80783295  1
  O  O26  4  -0.01466183  0.58320262  0.93824815  1
  O  O27  4  0.03029931  0.80278288  0.33301583  1
  O  O28  4  0.07676126  0.63207810  1.12906434  1
  O  O29  4  0.12296463  0.93161878  0.32612894  1
  O  O30  4  0.13021879  0.29233878  0.41556440  1
  O  O31  4  0.15493867  1.06853363  0.80536793  1
  O  O32  4  0.17804539  0.44206934  0.05138951  1
  O  O33  4  0.20715226  0.51567769  0.41553826  1
  O  O34  4  0.22711808  0.30215672  0.61146720  1
  O  O35  4  0.23712379  1.04856506  0.58589012  1
