###############################################################################################
#
# CIF file generated by modified CIFWriter class 
# in pymatgen (v2025.03.10) https://pymatgen.org/
#
###############################################################################################
data_PBE+MBD_tight_8e65e0c46a630a5
_symmetry_space_group_name_H-M   P2_1/c
_cell_length_a   12.24981142
_cell_length_b   8.21183031
_cell_length_c   15.65701362
_cell_angle_alpha   90.00000000
_cell_angle_beta   90.03167450
_cell_angle_gamma   90.00000000
_symmetry_Int_Tables_number   14
_chemical_formula_moiety   'C6 H6 N12 O12'
_chemical_formula_sum   'H24 C24 N48 O48'
_cell_volume   1574.99156629
_cell_formula_units_Z   4
loop_
 _symmetry_equiv_pos_site_id
 _symmetry_equiv_pos_as_xyz
  1  'x, y, z'
  2  '-x, -y, -z'
  3  '-x+1/2, y+1/2, -z+1/2'
  4  'x+1/2, -y+1/2, z+1/2'
loop_
 _atom_site_type_symbol
 _atom_site_label
 _atom_site_symmetry_multiplicity
 _atom_site_fract_x
 _atom_site_fract_y
 _atom_site_fract_z
 _atom_site_occupancy
  H  H0  4  0.02560903  0.24263677  1.03463855  1
  H  H1  4  0.06035857  0.79892044  0.45711266  1
  H  H2  4  0.10715068  0.88238128  0.60219872  1
  H  H3  4  0.13365577  0.47841430  1.05013670  1
  H  H4  4  0.20684490  -0.03654328  0.86916358  1
  H  H5  4  0.24565309  0.38070414  0.48763241  1
  C  C6  4  0.10902923  0.21848351  1.01350849  1
  C  C7  4  0.14242154  0.76090701  0.47610170  1
  C  C8  4  0.17282083  0.81496764  0.57060270  1
  C  C9  4  0.18199058  0.37812802  1.02423528  1
  C  C10  4  0.21666554  0.06688948  0.91249081  1
  C  C11  4  0.24763103  0.01254888  1.00633587  1
  N  N12  4  0.06029996  0.23684398  0.86097217  1
  N  N13  4  0.07395090  0.49931783  0.41980405  1
  N  N14  4  0.11193292  0.15174527  0.92748593  1
  N  N15  4  0.15007066  0.58682342  0.47040869  1
  N  N16  4  0.15481653  0.07629554  1.05551233  1
  N  N17  4  0.15522467  0.06963254  1.14528080  1
  N  N18  4  0.16781493  0.66330590  0.70727945  1
  N  N19  4  0.17991929  0.98755647  0.37602834  1
  N  N20  4  0.19925676  0.67277986  0.61950742  1
  N  N21  4  0.22356518  0.84256373  0.42167116  1
  N  N22  4  0.23045944  0.42019581  0.94109277  1
  N  N23  4  0.24256076  0.59021766  0.92566646  1
  O  O24  4  -0.00573267  0.34108405  0.88315296  1
  O  O25  4  0.00589322  0.58049272  0.38185423  1
  O  O26  4  0.08087245  0.35057118  0.42255641  1
  O  O27  4  0.08280407  0.98321007  0.36006713  1
  O  O28  4  0.08390978  0.19419266  0.78869211  1
  O  O29  4  0.09313691  0.16350967  1.18131504  1
  O  O30  4  0.11965679  0.78137403  0.73561872  1
  O  O31  4  0.16363826  0.67406567  0.94612732  1
  O  O32  4  0.17369584  1.13688201  0.60860489  1
  O  O33  4  0.18993890  0.53603940  0.74341064  1
  O  O34  4  0.21519700  -0.03379281  1.17655062  1
  O  O35  4  0.24697274  1.08957029  0.35670600  1
