###############################################################################################
#
# CIF file generated by modified CIFWriter class 
# in pymatgen (v2025.03.10) https://pymatgen.org/
#
###############################################################################################
data_PBE+MBD_tight_8e8375e179b557c
_symmetry_space_group_name_H-M   P2_1/c
_cell_length_a   13.08788490
_cell_length_b   13.79733978
_cell_length_c   13.76457512
_cell_angle_alpha   90.00000000
_cell_angle_beta   86.53207585
_cell_angle_gamma   90.00000000
_symmetry_Int_Tables_number   14
_chemical_formula_moiety   'C6 H6 N12 O12'
_chemical_formula_sum   'H24 C24 N48 O48'
_cell_volume   2481.02782973
_cell_formula_units_Z   4
loop_
 _symmetry_equiv_pos_site_id
 _symmetry_equiv_pos_as_xyz
  1  'x, y, z'
  2  '-x, -y, -z'
  3  '-x, y+1/2, -z+1/2'
  4  'x, -y+1/2, z+1/2'
loop_
 _atom_site_type_symbol
 _atom_site_label
 _atom_site_symmetry_multiplicity
 _atom_site_fract_x
 _atom_site_fract_y
 _atom_site_fract_z
 _atom_site_occupancy
  H  H0  4  -0.09630094  0.26968110  0.69609087  1
  H  H1  4  0.01916308  0.40653793  0.67609750  1
  H  H2  4  0.11475448  0.13062471  0.86190864  1
  H  H3  4  0.12448508  0.18657917  0.49562257  1
  H  H4  4  0.23371862  0.26451237  0.83578484  1
  H  H5  4  0.24432829  0.39294310  0.08949680  1
  C  C6  4  -0.01567053  0.25181331  0.19408120  1
  C  C7  4  0.06003335  0.16236122  0.17894515  1
  C  C8  4  0.10849978  0.33440198  0.29136508  1
  C  C9  4  0.11215618  0.20745358  0.57180471  1
  C  C10  4  0.18603583  0.25342277  0.77415025  1
  C  C11  4  0.19351342  0.15337767  0.63513148  1
  N  N12  4  -0.07533696  0.16551837  0.84767011  1
  N  N13  4  -0.06750187  0.17339610  0.54001376  1
  N  N14  4  0.00617391  0.20139990  0.78362488  1
  N  N15  4  0.00928801  0.18502384  0.60946010  1
  N  N16  4  0.11236906  0.31270893  0.58536877  1
  N  N17  4  0.12933978  0.34029164  0.75641955  1
  N  N18  4  0.13665983  0.42238237  0.81570041  1
  N  N19  4  0.13900035  0.09888542  0.71242056  1
  N  N20  4  0.16726745  0.00259283  0.73246908  1
  N  N21  4  0.19310900  0.36961365  0.54713201  1
  N  N22  4  0.24966632  0.27354137  0.18687618  1
  N  N23  4  0.35749174  0.20484108  0.70184539  1
  O  O24  4  -0.16154331  0.18509866  0.82633622  1
  O  O25  4  -0.15540488  0.18663131  0.57022507  1
  O  O26  4  -0.04833119  0.12222291  0.91950230  1
  O  O27  4  -0.03608735  0.35374184  -0.04130228  1
  O  O28  4  0.08337997  0.00815565  0.29666275  1
  O  O29  4  0.13736708  -0.02852958  0.81313064  1
  O  O30  4  0.19491247  0.41611816  0.88199217  1
  O  O31  4  0.20172522  0.04987296  0.08229324  1
  O  O32  4  0.21387320  -0.04130813  0.66696390  1
  O  O33  4  0.24544326  0.33312728  0.47898625  1
  O  O34  4  0.39264053  0.24609907  0.77037557  1
  O  O35  4  0.40017572  0.15251536  0.64104700  1
