###############################################################################################
#
# CIF file generated by modified CIFWriter class 
# in pymatgen (v2025.03.10) https://pymatgen.org/
#
###############################################################################################
data_PBE+MBD_tight_8eb22570cdb1ca4
_symmetry_space_group_name_H-M   P2_1/c
_cell_length_a   15.31979170
_cell_length_b   7.53895555
_cell_length_c   13.22180624
_cell_angle_alpha   90.00000000
_cell_angle_beta   91.07468798
_cell_angle_gamma   90.00000000
_symmetry_Int_Tables_number   14
_chemical_formula_moiety   'C6 H6 N12 O12'
_chemical_formula_sum   'H24 C24 N48 O48'
_cell_volume   1526.78691963
_cell_formula_units_Z   4
loop_
 _symmetry_equiv_pos_site_id
 _symmetry_equiv_pos_as_xyz
  1  'x, y, z'
  2  '-x, -y, -z'
  3  '-x, y+1/2, -z+1/2'
  4  'x, -y+1/2, z+1/2'
loop_
 _atom_site_type_symbol
 _atom_site_label
 _atom_site_symmetry_multiplicity
 _atom_site_fract_x
 _atom_site_fract_y
 _atom_site_fract_z
 _atom_site_occupancy
  H  H0  4  0.08152790  -0.01837686  0.49242810  1
  H  H1  4  0.20626859  -0.12689156  0.40354228  1
  H  H2  4  0.21902714  0.83743750  0.18862432  1
  H  H3  4  0.24066261  0.16005442  0.14782054  1
  H  H4  4  0.31274615  -0.12925297  0.77806174  1
  H  H5  4  0.36590753  0.27195572  0.06151320  1
  C  C6  4  0.14098102  -0.01366997  0.53934932  1
  C  C7  4  0.22326334  0.71213248  0.14771849  1
  C  C8  4  0.22337426  0.58550891  -0.01941598  1
  C  C9  4  0.23484995  0.30171512  0.13174737  1
  C  C10  4  0.28578951  0.57280054  0.20791913  1
  C  C11  4  0.31702554  0.37534587  0.07395469  1
  N  N12  4  0.07548299  -0.12506144  0.69851409  1
  N  N13  4  0.09236360  0.30080083  0.56000176  1
  N  N14  4  0.13794757  0.63914489  0.12420506  1
  N  N15  4  0.15723157  0.16583692  0.57182591  1
  N  N16  4  0.19856924  0.35919017  0.31242501  1
  N  N17  4  0.23907135  0.09259935  0.72424284  1
  N  N18  4  0.24995360  0.73690186  0.04392821  1
  N  N19  4  0.28803420  0.44680945  -0.02186731  1
  N  N20  4  0.32416076  -0.33515984  0.52327737  1
  N  N21  4  0.33597372  0.41336672  -0.11024192  1
  N  N22  4  0.35342135  0.51580420  0.13960465  1
  N  N23  4  0.44018402  0.02040112  0.68412205  1
  O  O24  4  0.01211672  0.53201855  0.17787710  1
  O  O25  4  0.02619657  0.25860764  0.51359188  1
  O  O26  4  0.09015664  -0.20868882  0.77685033  1
  O  O27  4  0.11113527  0.44531776  0.59550114  1
  O  O28  4  0.15600860  0.22085218  0.30913706  1
  O  O29  4  0.20921652  0.45751645  0.38584468  1
  O  O30  4  0.31315921  0.00561014  0.31352314  1
  O  O31  4  0.34766220  -0.44081409  0.58923289  1
  O  O32  4  0.35725981  0.80967166  -0.05887402  1
  O  O33  4  0.39321832  0.30092543  -0.10288989  1
  O  O34  4  0.45730499  0.55571645  0.26274135  1
  O  O35  4  0.48623871  0.38513964  0.13303717  1
