###############################################################################################
#
# CIF file generated by modified CIFWriter class 
# in pymatgen (v2025.03.10) https://pymatgen.org/
#
###############################################################################################
data_PBE+MBD_tight_8f2045acfa1603d
_symmetry_space_group_name_H-M   P2_1/c
_cell_length_a   7.98160948
_cell_length_b   8.25877632
_cell_length_c   24.85073408
_cell_angle_alpha   90.00000000
_cell_angle_beta   91.65183623
_cell_angle_gamma   90.00000000
_symmetry_Int_Tables_number   14
_chemical_formula_moiety   'C6 H6 N12 O12'
_chemical_formula_sum   'H24 C24 N48 O48'
_cell_volume   1637.43809438
_cell_formula_units_Z   4
loop_
 _symmetry_equiv_pos_site_id
 _symmetry_equiv_pos_as_xyz
  1  'x, y, z'
  2  '-x, -y, -z'
  3  '-x, y+1/2, -z+1/2'
  4  'x, -y+1/2, z+1/2'
loop_
 _atom_site_type_symbol
 _atom_site_label
 _atom_site_symmetry_multiplicity
 _atom_site_fract_x
 _atom_site_fract_y
 _atom_site_fract_z
 _atom_site_occupancy
  H  H0  4  -0.09380717  0.08811138  0.16213089  1
  H  H1  4  0.03708056  -0.16032601  0.13374614  1
  H  H2  4  0.19569454  0.35337137  0.05746688  1
  H  H3  4  0.31312790  0.10175459  0.02452969  1
  H  H4  4  0.37857356  0.06248903  0.23173787  1
  H  H5  4  0.45999071  0.71462998  0.32969344  1
  C  C6  4  0.03701035  0.39418966  0.65158356  1
  C  C7  4  0.12194521  -0.05649530  0.13221215  1
  C  C8  4  0.20801215  0.23949427  0.58875140  1
  C  C9  4  0.28851557  0.09833473  0.06758285  1
  C  C10  4  0.31154744  0.42402982  0.69301648  1
  C  C11  4  0.42059411  0.17800989  0.15157385  1
  N  N12  4  -0.09271856  0.32642208  0.09624358  1
  N  N13  4  0.04593799  0.27596345  0.60912318  1
  N  N14  4  0.11125328  -0.13102771  0.03598611  1
  N  N15  4  0.11693615  0.21828075  0.72912903  1
  N  N16  4  0.14411225  0.14433517  0.19869227  1
  N  N17  4  0.17917380  0.53694818  0.57823368  1
  N  N18  4  0.26796956  -0.07916215  0.16890620  1
  N  N19  4  0.27191777  -0.21969000  0.20259917  1
  N  N20  4  0.32258871  0.18415112  0.63257688  1
  N  N21  4  0.40923777  0.46761202  0.12518466  1
  N  N22  4  0.44252950  0.40759485  0.60057118  1
  N  N23  4  0.44668031  1.03666007  0.90414164  1
  O  O24  4  -0.22589961  0.28681419  0.11528539  1
  O  O25  4  -0.06557491  0.43929610  0.06623997  1
  O  O26  4  -0.01947352  0.34875299  0.22139982  1
  O  O27  4  0.00632945  0.73162562  0.54769059  1
  O  O28  4  0.16347845  -0.10176472  -0.00900648  1
  O  O29  4  0.18143007  0.83170378  0.68810287  1
  O  O30  4  0.22842737  0.32020656  0.26157884  1
  O  O31  4  0.34557640  1.05631796  0.86658034  1
  O  O32  4  0.35530515  -0.05339046  0.58861288  1
  O  O33  4  0.37197859  -0.21581478  0.24054212  1
  O  O34  4  0.45979215  0.38485365  0.44595455  1
  O  O35  4  0.48068721  0.50196351  0.84148832  1
