###############################################################################################
#
# CIF file generated by modified CIFWriter class 
# in pymatgen (v2025.03.10) https://pymatgen.org/
#
###############################################################################################
data_PBE+MBD_tight_8f56aa747a5583e
_symmetry_space_group_name_H-M   P2_12_12
_cell_length_a   14.99945161
_cell_length_b   15.26590751
_cell_length_c   7.61215798
_cell_angle_alpha   90.00000000
_cell_angle_beta   90.00000000
_cell_angle_gamma   90.00000000
_symmetry_Int_Tables_number   18
_chemical_formula_moiety   'C6 H6 N12 O12'
_chemical_formula_sum   'H24 C24 N48 O48'
_cell_volume   1743.03376833
_cell_formula_units_Z   4
loop_
 _symmetry_equiv_pos_site_id
 _symmetry_equiv_pos_as_xyz
  1  'x, y, z'
  2  '-x, -y, z'
  3  'x+1/2, -y+1/2, -z'
  4  '-x+1/2, y+1/2, -z'
loop_
 _atom_site_type_symbol
 _atom_site_label
 _atom_site_symmetry_multiplicity
 _atom_site_fract_x
 _atom_site_fract_y
 _atom_site_fract_z
 _atom_site_occupancy
  H  H0  4  0.10740548  0.66939925  0.40508620  1
  H  H1  4  0.11065037  0.03181924  0.47534254  1
  H  H2  4  0.11179181  0.52436825  0.53258248  1
  H  H3  4  0.11547314  0.17598893  0.60976386  1
  H  H4  4  0.16909489  0.49176138  0.01912664  1
  H  H5  4  0.17215613  -0.00169337  0.98682942  1
  C  C6  4  0.16402010  0.63093867  0.35818181  1
  C  C7  4  0.16750563  0.53654858  0.44360702  1
  C  C8  4  0.16830507  0.04042827  0.56131999  1
  C  C9  4  0.17171402  0.13477130  0.64891644  1
  C  C10  4  0.19456000  0.52162490  0.13944320  1
  C  C11  4  0.19847721  0.02544712  0.86442138  1
  N  N12  4  0.08216246  -0.06779753  0.73474093  1
  N  N13  4  0.08323514  0.42534835  0.27451807  1
  N  N14  4  0.11516826  0.16219605  0.95394969  1
  N  N15  4  0.15499363  0.60761697  0.17262750  1
  N  N16  4  0.15513365  0.67234138  0.04292501  1
  N  N17  4  0.16318605  -0.02030369  0.71116806  1
  N  N18  4  0.16380431  0.47504498  0.29421259  1
  N  N19  4  0.17033361  0.11510833  0.83532743  1
  N  N20  4  0.24486847  0.74944565  0.51184621  1
  N  N21  4  0.24546957  0.67837883  0.39363743  1
  N  N22  4  0.24715591  -0.03189623  0.31915933  1
  N  N23  4  0.24947884  0.02823416  0.46199898  1
  O  O24  4  0.04040462  -0.08483573  0.60062187  1
  O  O25  4  0.04164166  0.41106413  0.41008506  1
  O  O26  4  0.06415269  -0.08974526  0.88473050  1
  O  O27  4  0.06618394  0.39895468  0.12722781  1
  O  O28  4  0.08377190  0.23006715  0.89675050  1
  O  O29  4  0.10863773  0.13109477  1.10128903  1
  O  O30  4  0.13689493  0.74650393  0.09068358  1
  O  O31  4  0.17174418  0.77814675  0.55299924  1
  O  O32  4  0.17208962  0.64660077  -0.10685613  1
  O  O33  4  0.17335556  -0.05164074  0.26411057  1
  O  O34  4  0.18053759  0.44501323  0.73950757  1
  O  O35  4  0.18195096  0.27636982  0.44129587  1
