###############################################################################################
#
# CIF file generated by modified CIFWriter class 
# in pymatgen (v2025.03.10) https://pymatgen.org/
#
###############################################################################################
data_PBE+MBD_tight_900f9b94fecc650
_symmetry_space_group_name_H-M   P2_1/c
_cell_length_a   14.79724114
_cell_length_b   8.25071748
_cell_length_c   13.82390543
_cell_angle_alpha   90.00000000
_cell_angle_beta   76.72429815
_cell_angle_gamma   90.00000000
_symmetry_Int_Tables_number   14
_chemical_formula_moiety   'C6 H6 N12 O12'
_chemical_formula_sum   'H24 C24 N48 O48'
_cell_volume   1642.62863757
_cell_formula_units_Z   4
loop_
 _symmetry_equiv_pos_site_id
 _symmetry_equiv_pos_as_xyz
  1  'x, y, z'
  2  '-x, -y, -z'
  3  '-x, y+1/2, -z+1/2'
  4  'x, -y+1/2, z+1/2'
loop_
 _atom_site_type_symbol
 _atom_site_label
 _atom_site_symmetry_multiplicity
 _atom_site_fract_x
 _atom_site_fract_y
 _atom_site_fract_z
 _atom_site_occupancy
  H  H0  4  0.11847049  0.46403301  0.60557773  1
  H  H1  4  0.13894781  0.21439953  0.51104087  1
  H  H2  4  0.23080462  -0.22529645  0.84767930  1
  H  H3  4  0.24329390  0.47861161  0.25337522  1
  H  H4  4  0.39297223  0.33759276  0.54551766  1
  H  H5  4  0.45551115  0.00631557  0.89800769  1
  C  C6  4  0.17970406  0.46671940  0.54394914  1
  C  C7  4  0.19196886  0.19521709  0.98077071  1
  C  C8  4  0.24508481  0.62063881  0.39053258  1
  C  C9  4  0.25474203  0.45893398  0.32779945  1
  C  C10  4  0.33849952  0.37872322  0.50969980  1
  C  C11  4  0.38014504  0.01876284  0.91108280  1
  N  N12  4  0.08421465  0.66984611  0.48387879  1
  N  N13  4  0.14819552  0.22860796  0.32443030  1
  N  N14  4  0.17320313  0.60580955  0.48122329  1
  N  N15  4  0.18753758  0.34430523  0.38050673  1
  N  N16  4  0.26573369  0.03130562  1.07831169  1
  N  N17  4  0.28446393  0.24343505  0.48565979  1
  N  N18  4  0.28582452  0.40469500  1.04134281  1
  N  N19  4  0.28806131  0.59966141  0.63195064  1
  N  N20  4  0.33395602  0.63694400  0.41849722  1
  N  N21  4  0.35196994  0.41529438  0.32441986  1
  N  N22  4  0.38759728  0.26583359  0.28677516  1
  N  N23  4  0.38780050  0.78003043  0.39091311  1
  O  O24  4  0.02380745  0.63739310  0.55823872  1
  O  O25  4  0.07604950  0.75326624  0.41340215  1
  O  O26  4  0.11873869  0.10396295  0.36706817  1
  O  O27  4  0.14519760  0.27124640  0.24046909  1
  O  O28  4  0.21712651  0.49052382  1.05138359  1
  O  O29  4  0.22223350  -0.17548258  1.18185646  1
  O  O30  4  0.34475160  0.19665161  0.23267144  1
  O  O31  4  0.34702035  0.89437767  0.36460317  1
  O  O32  4  0.35739561  0.43267673  1.06756195  1
  O  O33  4  0.37108681  -0.12339507  1.12562905  1
  O  O34  4  0.45886864  0.22163084  0.30954686  1
  O  O35  4  0.46722114  0.77502213  0.40172025  1
