###############################################################################################
#
# CIF file generated by modified CIFWriter class 
# in pymatgen (v2025.03.10) https://pymatgen.org/
#
###############################################################################################
data_PBE+MBD_tight_940ee155ce2fe0a
_symmetry_space_group_name_H-M   P2_1/c
_cell_length_a   8.14426629
_cell_length_b   14.20443092
_cell_length_c   13.91887210
_cell_angle_alpha   90.00000000
_cell_angle_beta   80.18493716
_cell_angle_gamma   90.00000000
_symmetry_Int_Tables_number   14
_chemical_formula_moiety   'C6 H6 N12 O12'
_chemical_formula_sum   'H24 C24 N48 O48'
_cell_volume   1586.63178614
_cell_formula_units_Z   4
loop_
 _symmetry_equiv_pos_site_id
 _symmetry_equiv_pos_as_xyz
  1  'x, y, z'
  2  '-x, -y, -z'
  3  '-x, y+1/2, -z+1/2'
  4  'x, -y+1/2, z+1/2'
loop_
 _atom_site_type_symbol
 _atom_site_label
 _atom_site_symmetry_multiplicity
 _atom_site_fract_x
 _atom_site_fract_y
 _atom_site_fract_z
 _atom_site_occupancy
  H  H0  4  0.00999991  0.79319633  0.32258203  1
  H  H1  4  0.16666739  0.43228344  0.86089446  1
  H  H2  4  0.28656038  0.76435686  0.83166321  1
  H  H3  4  0.30794225  0.64623794  0.56259080  1
  H  H4  4  0.38969954  0.48639285  0.58641253  1
  H  H5  4  0.44512422  1.01004097  0.36935987  1
  C  C6  4  0.10793803  0.84294703  0.29305676  1
  C  C7  4  0.19938833  0.49469399  0.81561746  1
  C  C8  4  0.28821131  0.87198809  0.13981667  1
  C  C9  4  0.28870908  0.80525529  0.29810258  1
  C  C10  4  0.34508873  0.97819606  0.15554581  1
  C  C11  4  0.38296629  0.96812761  0.32006051  1
  N  N12  4  -0.07305832  0.95023408  0.40504746  1
  N  N13  4  -0.01629106  0.61209196  0.64777535  1
  N  N14  4  0.08421403  0.56981726  0.84697591  1
  N  N15  4  0.11794826  0.85447161  0.18751507  1
  N  N16  4  0.16227000  1.11971309  0.18535626  1
  N  N17  4  0.20522060  1.02772256  0.21241710  1
  N  N18  4  0.36564923  0.69560277  0.69605511  1
  N  N19  4  0.37895270  0.87037506  0.35075090  1
  N  N20  4  0.38104968  0.85088721  0.45055361  1
  N  N21  4  0.39434372  0.54122782  0.30052142  1
  N  N22  4  0.46999705  0.97644099  0.21936619  1
  N  N23  4  0.47644021  0.23196515  0.83530671  1
  O  O24  4  -0.16411940  0.88304184  0.42828232  1
  O  O25  4  -0.15157928  0.61412071  0.70245798  1
  O  O26  4  -0.09730275  1.03254684  0.42955982  1
  O  O27  4  0.01414567  0.58593643  0.56281206  1
  O  O28  4  0.06537988  0.33806657  0.74766938  1
  O  O29  4  0.21797039  1.14481761  0.10251201  1
  O  O30  4  0.30893580  0.72127584  0.98249059  1
  O  O31  4  0.32396422  0.56043741  0.23244580  1
  O  O32  4  0.35760490  -0.06769209  0.88517836  1
  O  O33  4  0.40730619  0.29091247  0.41676246  1
  O  O34  4  0.42425294  0.21454039  0.27765770  1
  O  O35  4  0.45700386  0.90597980  0.49342114  1
