###############################################################################################
#
# CIF file generated by modified CIFWriter class 
# in pymatgen (v2025.03.10) https://pymatgen.org/
#
###############################################################################################
data_PBE+MBD_tight_943c4498e98ba29
_symmetry_space_group_name_H-M   P4_2
_cell_length_a   14.46539045
_cell_length_b   14.46539045
_cell_length_c   7.92674129
_cell_angle_alpha   90.00000000
_cell_angle_beta   90.00000000
_cell_angle_gamma   90.00000000
_symmetry_Int_Tables_number   77
_chemical_formula_moiety   'C6 H6 N12 O12'
_chemical_formula_sum   'H24 C24 N48 O48'
_cell_volume   1658.65096255
_cell_formula_units_Z   4
loop_
 _symmetry_equiv_pos_site_id
 _symmetry_equiv_pos_as_xyz
  1  'x, y, z'
  2  '-y, x, z+1/2'
  3  '-x, -y, z'
  4  'y, -x, z+1/2'
loop_
 _atom_site_type_symbol
 _atom_site_label
 _atom_site_symmetry_multiplicity
 _atom_site_fract_x
 _atom_site_fract_y
 _atom_site_fract_z
 _atom_site_occupancy
  H  H0  4  0.07775333  0.21627183  0.70493483  1
  H  H1  4  0.10183515  0.26361518  0.42465165  1
  H  H2  4  0.16515377  0.66266995  0.36814481  1
  H  H3  4  0.24951135  0.62109789  -0.12825120  1
  H  H4  4  0.29882911  0.32134020  0.94783550  1
  H  H5  4  0.34719497  0.40704070  0.45489309  1
  C  C6  4  0.14973803  0.23644798  0.68556313  1
  C  C7  4  0.16627387  0.26862727  0.49596743  1
  C  C8  4  0.20309215  0.69620411  0.26571293  1
  C  C9  4  0.25393386  0.67086819  -0.02510559  1
  C  C10  4  0.27887971  0.30593505  0.81795648  1
  C  C11  4  0.30637167  0.35677125  0.52571588  1
  N  N12  4  0.08735357  0.82028052  0.32800056  1
  N  N13  4  0.12300814  0.32536072  0.94827812  1
  N  N14  4  0.12461335  0.58044568  0.08756974  1
  N  N15  4  0.15498937  0.43937884  0.51479976  1
  N  N16  4  0.16177535  0.78661268  0.22604679  1
  N  N17  4  0.17770815  0.31126665  0.79900814  1
  N  N18  4  0.19216828  0.77083365  -0.25322369  1
  N  N19  4  0.20636529  0.63587899  0.12054338  1
  N  N20  4  0.20796372  0.36038906  0.48301771  1
  N  N21  4  0.21410585  0.76028360  -0.07969796  1
  N  N22  4  0.32482944  0.36878547  0.70428513  1
  N  N23  4  0.35505403  0.45568435  0.76499389  1
  O  O24  4  0.04181944  0.30374268  0.93777177  1
  O  O25  4  0.04286937  0.76096634  0.40247898  1
  O  O26  4  0.07192559  0.42763581  0.52756677  1
  O  O27  4  0.07319029  0.90324243  0.32327101  1
  O  O28  4  0.07370143  0.56883207  0.20715062  1
  O  O29  4  0.11847344  0.54919468  -0.05491054  1
  O  O30  4  0.15088632  0.17304083  0.20028645  1
  O  O31  4  0.16270350  0.36165664  1.06721905  1
  O  O32  4  0.19024760  0.69999454  -0.33797102  1
  O  O33  4  0.19862924  0.51229645  0.52210178  1
  O  O34  4  0.34628992  0.46902384  0.91715272  1
  O  O35  4  0.38968256  0.50814808  0.66199693  1
