###############################################################################################
#
# CIF file generated by modified CIFWriter class 
# in pymatgen (v2025.03.10) https://pymatgen.org/
#
###############################################################################################
data_PBE+MBD_tight_95d79173f8f03ba
_symmetry_space_group_name_H-M   P2_1/c
_cell_length_a   12.47642135
_cell_length_b   9.41078824
_cell_length_c   13.70246694
_cell_angle_alpha   90.00000000
_cell_angle_beta   85.55658526
_cell_angle_gamma   90.00000000
_symmetry_Int_Tables_number   14
_chemical_formula_moiety   'C6 H6 N12 O12'
_chemical_formula_sum   'H24 C24 N48 O48'
_cell_volume   1604.01153641
_cell_formula_units_Z   4
loop_
 _symmetry_equiv_pos_site_id
 _symmetry_equiv_pos_as_xyz
  1  'x, y, z'
  2  '-x, -y, -z'
  3  '-x, y+1/2, -z+1/2'
  4  'x, -y+1/2, z+1/2'
loop_
 _atom_site_type_symbol
 _atom_site_label
 _atom_site_symmetry_multiplicity
 _atom_site_fract_x
 _atom_site_fract_y
 _atom_site_fract_z
 _atom_site_occupancy
  H  H0  4  0.10330163  0.95221479  0.76772037  1
  H  H1  4  0.12273627  0.70116482  0.72540033  1
  H  H2  4  0.20735423  0.56854625  -0.01785128  1
  H  H3  4  0.39806745  0.54829678  -0.01304739  1
  H  H4  4  0.43324386  0.98270326  0.78227781  1
  H  H5  4  0.45396861  0.76375073  0.23838188  1
  C  C6  4  0.17861105  0.57093757  0.22428763  1
  C  C7  4  0.19093157  0.76556789  0.69622479  1
  C  C8  4  0.23277873  0.90818755  0.55501339  1
  C  C9  4  0.36097496  0.57857337  0.05881933  1
  C  C10  4  0.37390172  0.94795273  0.73264376  1
  C  C11  4  0.38717221  0.78573526  0.70405512  1
  N  N12  4  0.08899678  0.41804757  0.10485832  1
  N  N13  4  0.13202179  0.68074219  0.53503375  1
  N  N14  4  0.18170276  1.00242613  0.62897523  1
  N  N15  4  0.19985396  0.73263701  0.08933855  1
  N  N16  4  0.25116656  1.07695205  0.85363178  1
  N  N17  4  0.26754847  0.53061852  0.27863972  1
  N  N18  4  0.28858112  0.71213748  0.73310258  1
  N  N19  4  0.29004650  0.58162395  0.78306242  1
  N  N20  4  0.38040210  1.16172103  0.62423934  1
  N  N21  4  0.39123532  1.01596691  0.63569051  1
  N  N22  4  0.40843445  0.79370613  0.59683748  1
  N  N23  4  0.40964126  0.66977587  0.54093183  1
  O  O24  4  0.03050420  1.12319024  0.67472558  1
  O  O25  4  0.08225258  1.10610643  0.51818592  1
  O  O26  4  0.08527042  0.58501798  0.58036400  1
  O  O27  4  0.13301717  0.70844853  0.44769777  1
  O  O28  4  0.15824570  1.11335574  0.87297749  1
  O  O29  4  0.20439267  0.98100291  0.29610234  1
  O  O30  4  0.33129825  1.11463985  0.89128515  1
  O  O31  4  0.36701408  0.29701814  0.04139636  1
  O  O32  4  0.37686325  0.95452604  0.31161582  1
  O  O33  4  0.38813838  1.23419419  0.69804663  1
  O  O34  4  0.39758041  0.81319716  -0.04660714  1
  O  O35  4  0.42396470  0.94119516  0.08418562  1
