###############################################################################################
#
# CIF file generated by modified CIFWriter class 
# in pymatgen (v2025.03.10) https://pymatgen.org/
#
###############################################################################################
data_PBE+MBD_tight_96dbbd7e638e054
_symmetry_space_group_name_H-M   P2_1/m
_cell_length_a   7.77413472
_cell_length_b   32.73629803
_cell_length_c   7.67208878
_cell_angle_alpha   90.00000000
_cell_angle_beta   95.66026245
_cell_angle_gamma   90.00000000
_symmetry_Int_Tables_number   11
_chemical_formula_moiety   'C6 H6 N12 O12'
_chemical_formula_sum   'H24 C24 N48 O48'
_cell_volume   1942.99884188
_cell_formula_units_Z   4
loop_
 _symmetry_equiv_pos_site_id
 _symmetry_equiv_pos_as_xyz
  1  'x, y, z'
  2  '-x, -y, -z'
  3  '-x, y+1/2, -z'
  4  'x, -y+1/2, z'
loop_
 _atom_site_type_symbol
 _atom_site_label
 _atom_site_symmetry_multiplicity
 _atom_site_fract_x
 _atom_site_fract_y
 _atom_site_fract_z
 _atom_site_occupancy
  H  H0  4  0.17541306  0.53934048  0.32605764  1
  H  H1  4  0.18834143  0.66576307  0.35553516  1
  H  H2  4  0.46178634  0.53571345  0.47780611  1
  H  H3  4  0.46663213  0.14300976  0.99271022  1
  H  H4  4  0.47126680  0.07092939  1.01473690  1
  H  H5  4  0.47558510  0.66217579  0.51728021  1
  C  C6  4  0.25655996  0.56511367  0.29516773  1
  C  C7  4  0.26552679  0.64005095  0.31582767  1
  C  C8  4  0.44390576  0.56298009  0.39647485  1
  C  C9  4  0.45208696  0.63787204  0.42007772  1
  C  C10  4  0.47297500  0.58096468  0.10325855  1
  C  C11  4  0.47734654  0.62963908  0.11932579  1
  N  N12  4  0.01903848  0.60221778  0.42036763  1
  N  N13  4  0.17110120  0.57010460  -0.02506508  1
  N  N14  4  0.17288786  0.60259597  0.33741287  1
  N  N15  4  0.24803421  0.68153577  0.04202181  1
  N  N16  4  0.29947552  0.56427827  0.11321523  1
  N  N17  4  0.30117588  0.64410944  0.13284903  1
  N  N18  4  0.33446391  0.18056267  0.71865067  1
  N  N19  4  0.34845589  0.02491783  0.76549457  1
  N  N20  4  0.42030838  0.09522345  0.33658633  1
  N  N21  4  0.42821780  0.14180569  0.71500237  1
  N  N22  4  0.43728168  0.06258827  0.74162499  1
  N  N23  4  0.46933557  0.59861078  0.50560758  1
  O  O24  4  -0.04713592  0.56879418  0.43837139  1
  O  O25  4  -0.03312967  0.63547540  0.46568073  1
  O  O26  4  0.02292921  0.56269000  0.00562998  1
  O  O27  4  0.13619611  0.70112147  0.10488912  1
  O  O28  4  0.22190849  0.58114677  -0.16439640  1
  O  O29  4  0.26931691  0.18730290  0.85359924  1
  O  O30  4  0.30503333  0.01835398  0.91121161  1
  O  O31  4  0.31545110  0.68800699  -0.09225067  1
  O  O32  4  0.31677316  0.00415477  0.63366470  1
  O  O33  4  0.32462814  0.20052375  0.58423327  1
  O  O34  4  0.37890663  0.12728918  0.26217954  1
  O  O35  4  0.38410923  0.06056092  0.28575944  1
