###############################################################################################
#
# CIF file generated by modified CIFWriter class 
# in pymatgen (v2025.03.10) https://pymatgen.org/
#
###############################################################################################
data_PBE+MBD_tight_974fe7f12b95efc
_symmetry_space_group_name_H-M   P222_1
_cell_length_a   9.36718648
_cell_length_b   8.07011044
_cell_length_c   25.51781200
_cell_angle_alpha   90.00000000
_cell_angle_beta   90.00000000
_cell_angle_gamma   90.00000000
_symmetry_Int_Tables_number   17
_chemical_formula_moiety   'C6 H6 N12 O12'
_chemical_formula_sum   'H24 C24 N48 O48'
_cell_volume   1928.99933448
_cell_formula_units_Z   4
loop_
 _symmetry_equiv_pos_site_id
 _symmetry_equiv_pos_as_xyz
  1  'x, y, z'
  2  '-x, -y, z+1/2'
  3  '-x, y, -z+1/2'
  4  'x, -y, -z'
loop_
 _atom_site_type_symbol
 _atom_site_label
 _atom_site_symmetry_multiplicity
 _atom_site_fract_x
 _atom_site_fract_y
 _atom_site_fract_z
 _atom_site_occupancy
  H  H0  4  0.08518910  0.01053208  0.36806601  1
  H  H1  4  0.09216619  0.45894511  0.29790995  1
  H  H2  4  0.13452406  0.07439281  0.45623646  1
  H  H3  4  0.18067467  0.41914227  0.54797377  1
  H  H4  4  0.32882472  0.33767944  0.28872211  1
  H  H5  4  0.41959515  0.46026622  0.44272810  1
  C  C6  4  0.13069925  0.40306727  0.33424597  1
  C  C7  4  0.13310996  0.13355897  0.37109761  1
  C  C8  4  0.16606168  0.17749322  0.43110556  1
  C  C9  4  0.18317730  0.47375443  0.42578213  1
  C  C10  4  0.28546169  0.32405201  0.32834664  1
  C  C11  4  0.33804273  0.39551100  0.41988294  1
  N  N12  4  -0.06973303  0.21044134  0.31389666  1
  N  N13  4  -0.05015007  0.33925817  0.44927153  1
  N  N14  4  0.04045232  0.26187240  0.34934570  1
  N  N15  4  0.04915673  0.32858183  0.62954389  1
  N  N16  4  0.10164345  0.33293577  0.44800548  1
  N  N17  4  0.13594207  0.47348280  0.62517317  1
  N  N18  4  0.26464306  0.14812970  0.34100308  1
  N  N19  4  0.28816494  0.02739148  0.29948573  1
  N  N20  4  0.31335891  0.22620381  0.43992453  1
  N  N21  4  0.37878173  0.40177886  0.36569741  1
  N  N22  4  0.42088487  0.10535567  0.43635996  1
  N  N23  4  0.47847721  0.44798431  0.14862411  1
  O  O24  4  -0.11877795  0.31980669  0.28586090  1
  O  O25  4  -0.10993021  0.20617276  0.45504478  1
  O  O26  4  -0.10755408  0.06646030  0.31688240  1
  O  O27  4  -0.10266492  0.47728196  0.44603685  1
  O  O28  4  -0.01852674  0.31362327  0.66984077  1
  O  O29  4  0.05740765  0.23117410  0.59281656  1
  O  O30  4  0.24007377  -0.11056710  0.30800201  1
  O  O31  4  0.35937127  0.07428308  0.26270490  1
  O  O32  4  0.38046520  -0.03895692  0.44038673  1
  O  O33  4  0.40689483  0.48903326  0.88586207  1
  O  O34  4  0.44648525  0.42308200  0.19425757  1
  O  O35  4  0.45754773  0.15702553  0.06876327  1
