###############################################################################################
#
# CIF file generated by modified CIFWriter class 
# in pymatgen (v2025.03.10) https://pymatgen.org/
#
###############################################################################################
data_PBE+MBD_tight_98dd69d49471629
_symmetry_space_group_name_H-M   Pnc2
_cell_length_a   7.40808208
_cell_length_b   15.10405519
_cell_length_c   16.29736216
_cell_angle_alpha   90.00000000
_cell_angle_beta   90.00000000
_cell_angle_gamma   90.00000000
_symmetry_Int_Tables_number   30
_chemical_formula_moiety   'C6 H6 N12 O12'
_chemical_formula_sum   'H24 C24 N48 O48'
_cell_volume   1823.54576035
_cell_formula_units_Z   4
loop_
 _symmetry_equiv_pos_site_id
 _symmetry_equiv_pos_as_xyz
  1  'x, y, z'
  2  '-x, -y, z'
  3  '-x, y+1/2, z+1/2'
  4  'x, -y+1/2, z+1/2'
loop_
 _atom_site_type_symbol
 _atom_site_label
 _atom_site_symmetry_multiplicity
 _atom_site_fract_x
 _atom_site_fract_y
 _atom_site_fract_z
 _atom_site_occupancy
  H  H0  4  -0.23176207  0.14595255  0.39512367  1
  H  H1  4  -0.11430810  0.08790042  0.92571311  1
  H  H2  4  0.02550424  0.15220717  0.61779907  1
  H  H3  4  0.08823724  0.11390484  0.37488805  1
  H  H4  4  0.09170043  0.19413636  1.13324929  1
  H  H5  4  0.20728578  0.11797949  0.90092731  1
  C  C6  4  -0.14285158  0.18920256  0.43060647  1
  C  C7  4  -0.07111783  0.15292151  0.94760536  1
  C  C8  4  0.01575155  0.18672944  0.55904295  1
  C  C9  4  0.05994988  0.21007502  1.06930225  1
  C  C10  4  0.06610466  0.16927770  0.41674941  1
  C  C11  4  0.13718556  0.17195063  0.93227889  1
  N  N12  4  -0.31956630  0.19642929  0.85288616  1
  N  N13  4  -0.31852258  0.17502383  0.56131853  1
  N  N14  4  -0.17586103  0.22007179  0.90756924  1
  N  N15  4  -0.15662195  0.17195408  0.51852095  1
  N  N16  4  -0.14131156  0.08019705  1.08080396  1
  N  N17  4  -0.09248005  0.15911370  1.03724273  1
  N  N18  4  0.13676092  0.14892368  0.49805312  1
  N  N19  4  0.15546797  0.24410398  0.79811596  1
  N  N20  4  0.15907013  0.24677589  0.38438249  1
  N  N21  4  0.19909835  0.06062958  0.51103817  1
  N  N22  4  0.20442345  0.18570084  1.01396615  1
  N  N23  4  0.37137819  0.15321515  1.04019655  1
  O  O24  4  -0.45575382  0.17093247  0.51915344  1
  O  O25  4  -0.41303557  0.24249381  0.32864766  1
  O  O26  4  -0.32911685  0.11825946  0.83502649  1
  O  O27  4  -0.30696454  0.17949098  0.63611703  1
  O  O28  4  -0.19979697  0.01902794  1.03910936  1
  O  O29  4  -0.12706242  0.08349984  1.15503265  1
  O  O30  4  0.13480364  0.18711457  0.25915931  1
  O  O31  4  0.17729986  0.16955524  0.77032455  1
  O  O32  4  0.20816425  0.03574586  0.58207389  1
  O  O33  4  0.24423045  0.01983925  0.44923435  1
  O  O34  4  0.40314437  0.15843653  1.11346840  1
  O  O35  4  0.46983082  0.12478897  0.98571150  1
