###############################################################################################
#
# CIF file generated by modified CIFWriter class 
# in pymatgen (v2025.03.10) https://pymatgen.org/
#
###############################################################################################
data_PBE+MBD_tight_99546eb00257ad1
_symmetry_space_group_name_H-M   P2_1/c
_cell_length_a   12.55370632
_cell_length_b   8.06402270
_cell_length_c   15.28389953
_cell_angle_alpha   90.00000000
_cell_angle_beta   92.61174337
_cell_angle_gamma   90.00000000
_symmetry_Int_Tables_number   14
_chemical_formula_moiety   'C6 H6 N12 O12'
_chemical_formula_sum   'H24 C24 N48 O48'
_cell_volume   1545.63350538
_cell_formula_units_Z   4
loop_
 _symmetry_equiv_pos_site_id
 _symmetry_equiv_pos_as_xyz
  1  'x, y, z'
  2  '-x, -y, -z'
  3  '-x, y+1/2, -z+1/2'
  4  'x, -y+1/2, z+1/2'
loop_
 _atom_site_type_symbol
 _atom_site_label
 _atom_site_symmetry_multiplicity
 _atom_site_fract_x
 _atom_site_fract_y
 _atom_site_fract_z
 _atom_site_occupancy
  H  H0  4  0.06503726  0.18684534  0.53248631  1
  H  H1  4  0.09183329  0.50851904  0.78539073  1
  H  H2  4  0.11956297  -0.10079651  0.55025668  1
  H  H3  4  0.27128638  0.06441725  0.25273356  1
  H  H4  4  0.37220244  0.18710269  0.97078066  1
  H  H5  4  0.42556299  0.47117936  0.98888328  1
  C  C6  4  0.12581380  0.15054704  0.48715711  1
  C  C7  4  0.13867616  0.02436204  0.34497095  1
  C  C8  4  0.16204706  -0.03646976  0.49944840  1
  C  C9  4  0.25886065  0.42595697  0.82291269  1
  C  C10  4  0.30853173  0.27365312  0.95069388  1
  C  C11  4  0.34347828  0.46151679  0.96321791  1
  N  N12  4  0.04867723  0.29838561  0.35692264  1
  N  N13  4  0.08509903  0.34995797  0.89565458  1
  N  N14  4  0.13439613  -0.10546767  0.41154353  1
  N  N15  4  0.16670823  -0.26713018  0.39121695  1
  N  N16  4  0.21574932  0.26043007  0.50012207  1
  N  N17  4  0.22638367  0.14265435  1.07712834  1
  N  N18  4  0.27387302  -0.03779052  0.52348166  1
  N  N19  4  0.28053340  0.26042925  0.85762266  1
  N  N20  4  0.31467850  -0.15372958  0.58790925  1
  N  N21  4  0.33032173  0.13606153  0.80663792  1
  N  N22  4  0.33089633  0.53220197  0.87518087  1
  N  N23  4  0.42322063  -0.10310480  0.33714095  1
  O  O24  4  0.01750152  0.09732759  0.90779147  1
  O  O25  4  0.04870398  0.30468579  0.27677352  1
  O  O26  4  0.14934476  0.14131569  1.12346051  1
  O  O27  4  0.16704016  0.80245386  0.81348024  1
  O  O28  4  0.18818150  -0.35646618  0.45439232  1
  O  O29  4  0.24919104  0.71289366  1.13505141  1
  O  O30  4  0.31059315  0.06898269  1.08921728  1
  O  O31  4  0.31730968  0.15049937  0.72740758  1
  O  O32  4  0.37540403  0.47477803  0.34791987  1
  O  O33  4  0.41097198  -0.17530376  0.59024505  1
  O  O34  4  0.42334753  -0.10526158  0.25775640  1
  O  O35  4  0.48902099  0.66152041  0.89001904  1
