###############################################################################################
#
# CIF file generated by modified CIFWriter class 
# in pymatgen (v2025.03.10) https://pymatgen.org/
#
###############################################################################################
data_PBE+MBD_tight_9b49bd2df57c59a
_symmetry_space_group_name_H-M   P2_1/c
_cell_length_a   9.27321977
_cell_length_b   25.63192991
_cell_length_c   8.90629599
_cell_angle_alpha   90.00000000
_cell_angle_beta   54.11995587
_cell_angle_gamma   90.00000000
_symmetry_Int_Tables_number   14
_chemical_formula_moiety   'C6 H6 N12 O12'
_chemical_formula_sum   'H24 C24 N48 O48'
_cell_volume   1715.24350638
_cell_formula_units_Z   4
loop_
 _symmetry_equiv_pos_site_id
 _symmetry_equiv_pos_as_xyz
  1  'x, y, z'
  2  '-x, -y, -z'
  3  '-x, y+1/2, -z+1/2'
  4  'x, -y+1/2, z+1/2'
loop_
 _atom_site_type_symbol
 _atom_site_label
 _atom_site_symmetry_multiplicity
 _atom_site_fract_x
 _atom_site_fract_y
 _atom_site_fract_z
 _atom_site_occupancy
  H  H0  4  0.03088750  0.18137757  0.63136556  1
  H  H1  4  0.12532769  0.37779607  1.25726896  1
  H  H2  4  0.27980796  0.36981312  0.60482475  1
  H  H3  4  0.36472200  0.90679545  0.67266582  1
  H  H4  4  0.45286858  0.02608392  0.32726678  1
  H  H5  4  0.47143474  0.30403445  0.59323613  1
  C  C6  4  0.14886669  0.16054448  0.51995966  1
  C  C7  4  0.21376943  0.37954133  1.10580198  1
  C  C8  4  0.29219708  0.12657293  0.21919956  1
  C  C9  4  0.39392760  0.43521808  0.85119452  1
  C  C10  4  0.41705677  0.32993060  0.71234928  1
  C  C11  4  0.48549799  0.89106008  0.65082998  1
  N  N12  4  -0.01296975  0.33776727  0.88005674  1
  N  N13  4  0.11604323  0.36576914  0.89856097  1
  N  N14  4  0.19915228  0.47373693  1.16511293  1
  N  N15  4  0.22568276  0.06739528  0.53807568  1
  N  N16  4  0.26371958  0.65021830  0.45301792  1
  N  N17  4  0.29099864  0.30360324  0.88850964  1
  N  N18  4  0.31001955  0.03302162  0.15345778  1
  N  N19  4  0.34314286  0.26296944  0.94760519  1
  N  N20  4  0.36671779  0.42383036  0.71064428  1
  N  N21  4  0.39802721  0.36680267  1.03257885  1
  N  N22  4  0.43865149  0.85262067  0.79081014  1
  N  N23  4  0.44648003  0.37086369  1.15908716  1
  O  O24  4  -0.11475221  0.30824845  1.00539679  1
  O  O25  4  -0.00748882  0.15020858  0.24495417  1
  O  O26  4  0.08886267  0.46505222  1.32848381  1
  O  O27  4  0.15304122  0.87705180  0.95728190  1
  O  O28  4  0.23881606  0.81995448  1.07380713  1
  O  O29  4  0.24120790  0.24790350  0.61400951  1
  O  O30  4  0.25379165  0.45614642  0.56346627  1
  O  O31  4  0.28465169  0.51390555  1.09279854  1
  O  O32  4  0.32738727  0.13954152  0.82025387  1
  O  O33  4  0.33015943  0.51040997  0.69577622  1
  O  O34  4  0.39901560  0.88156922  0.40824479  1
  O  O35  4  0.48299692  0.25907154  0.32999776  1
