###############################################################################################
#
# CIF file generated by modified CIFWriter class 
# in pymatgen (v2025.03.10) https://pymatgen.org/
#
###############################################################################################
data_PBE+MBD_tight_9ce61a3c21a9679
_symmetry_space_group_name_H-M   P2_1/c
_cell_length_a   9.01317512
_cell_length_b   13.18891939
_cell_length_c   14.08593813
_cell_angle_alpha   90.00000000
_cell_angle_beta   68.13517345
_cell_angle_gamma   90.00000000
_symmetry_Int_Tables_number   14
_chemical_formula_moiety   'C6 H6 N12 O12'
_chemical_formula_sum   'H24 C24 N48 O48'
_cell_volume   1554.00073247
_cell_formula_units_Z   4
loop_
 _symmetry_equiv_pos_site_id
 _symmetry_equiv_pos_as_xyz
  1  'x, y, z'
  2  '-x, -y, -z'
  3  '-x, y+1/2, -z+1/2'
  4  'x, -y+1/2, z+1/2'
loop_
 _atom_site_type_symbol
 _atom_site_label
 _atom_site_symmetry_multiplicity
 _atom_site_fract_x
 _atom_site_fract_y
 _atom_site_fract_z
 _atom_site_occupancy
  H  H0  4  -0.14463767  0.51852458  0.40136847  1
  H  H1  4  0.06794203  0.42625269  0.43216584  1
  H  H2  4  0.12703931  0.51541748  0.09007604  1
  H  H3  4  0.21237851  0.72315060  0.37325759  1
  H  H4  4  0.33770569  0.42675463  0.12239774  1
  H  H5  4  0.36235934  0.77795799  0.69283238  1
  C  C6  4  -0.02473255  0.53788352  0.34754998  1
  C  C7  4  0.11361014  0.47934508  0.36819853  1
  C  C8  4  0.13412718  0.53683721  0.16331854  1
  C  C9  4  0.18686719  0.65513101  0.33764565  1
  C  C10  4  0.27374503  0.47896182  0.18437467  1
  C  C11  4  0.28798205  0.84575042  0.71675858  1
  N  N12  4  -0.15673251  0.50205421  0.22450830  1
  N  N13  4  -0.07444619  0.77607644  0.85061643  1
  N  N14  4  -0.01466965  0.51606312  0.24556854  1
  N  N15  4  0.01634006  0.85641076  0.86173201  1
  N  N16  4  0.17782030  0.85606105  0.66339951  1
  N  N17  4  0.18766706  0.70933670  0.08205782  1
  N  N18  4  0.20360646  0.56376888  0.39047276  1
  N  N19  4  0.20518395  1.07684388  0.77793015  1
  N  N20  4  0.28521954  1.16679704  0.79259564  1
  N  N21  4  0.34866971  0.54596508  0.40440358  1
  N  N22  4  0.38281397  0.56095362  0.18992240  1
  N  N23  4  0.47060631  0.06754121  0.39986347  1
  O  O24  4  -0.27693255  0.48104687  0.29772552  1
  O  O25  4  -0.20869821  0.70307579  0.35387257  1
  O  O26  4  -0.14046664  0.50976640  0.13486759  1
  O  O27  4  -0.01207556  0.80815506  0.34069746  1
  O  O28  4  0.13516974  0.67671074  0.01942540  1
  O  O29  4  0.20830016  0.28265312  0.36724240  1
  O  O30  4  0.24006901  0.70562755  0.58582006  1
  O  O31  4  0.36040465  0.46162942  0.43785074  1
  O  O32  4  0.41162982  0.51382128  0.93617682  1
  O  O33  4  0.41634143  1.18415796  0.72781436  1
  O  O34  4  0.41786362  0.15195100  0.42795539  1
  O  O35  4  0.44155931  0.88321557  0.88570288  1
