###############################################################################################
#
# CIF file generated by modified CIFWriter class 
# in pymatgen (v2025.03.10) https://pymatgen.org/
#
###############################################################################################
data_PBE+MBD_tight_9e4fde6d12faca3
_symmetry_space_group_name_H-M   P-1
_cell_length_a   14.19725720
_cell_length_b   15.76318993
_cell_length_c   8.17966934
_cell_angle_alpha   81.14499670
_cell_angle_beta   106.79796051
_cell_angle_gamma   77.90968752
_symmetry_Int_Tables_number   2
_chemical_formula_moiety   'C6 H6 N12 O12'
_chemical_formula_sum   'H24 C24 N48 O48'
_cell_volume   1668.00017130
_cell_formula_units_Z   4
loop_
 _symmetry_equiv_pos_site_id
 _symmetry_equiv_pos_as_xyz
  1  'x, y, z'
  2  '-x, -y, -z'
  3  'x+1/2, y+1/2, z'
  4  '-x+1/2, -y+1/2, -z'
loop_
 _atom_site_type_symbol
 _atom_site_label
 _atom_site_symmetry_multiplicity
 _atom_site_fract_x
 _atom_site_fract_y
 _atom_site_fract_z
 _atom_site_occupancy
  H  H0  4  0.07862733  0.44644636  1.08084027  1
  H  H1  4  0.08544214  0.01246503  -0.19638698  1
  H  H2  4  0.09738757  0.60105322  0.64419502  1
  H  H3  4  0.11134957  0.58297814  1.15650758  1
  H  H4  4  0.11951591  0.14773207  -0.11507971  1
  H  H5  4  0.22692558  -0.04730424  0.32841206  1
  C  C6  4  0.13526191  0.46698549  1.02922901  1
  C  C7  4  0.14290798  0.56353518  0.77790997  1
  C  C8  4  0.15744097  0.55541487  1.08099054  1
  C  C9  4  0.16280371  0.00096662  -0.10507287  1
  C  C10  4  0.18505056  0.08934036  -0.05127255  1
  C  C11  4  0.23940953  -0.02704070  0.20403276  1
  N  N12  4  0.07872142  0.43074644  0.73771687  1
  N  N13  4  0.09331199  -0.08800430  0.08520133  1
  N  N14  4  0.09931620  0.49352070  0.83716447  1
  N  N15  4  0.12941590  0.61447447  0.90715325  1
  N  N16  4  0.14284650  0.70040638  0.89029809  1
  N  N17  4  0.15527428  0.12706052  0.21738167  1
  N  N18  4  0.17750698  -0.05874937  0.06261419  1
  N  N19  4  0.20423827  -0.06942757  -0.33627802  1
  N  N20  4  0.20924158  0.06899039  0.13776993  1
  N  N21  4  0.22694709  0.39340022  1.09330100  1
  N  N22  4  0.23595709  -0.03438225  -0.18398514  1
  N  N23  4  0.24648768  0.33618353  1.26196190  1
  O  O24  4  0.02524042  -0.08443427  -0.05038583  1
  O  O25  4  0.04539300  0.37283110  0.80137279  1
  O  O26  4  0.09291145  0.44175595  0.59620232  1
  O  O27  4  0.09820218  -0.11683906  0.23536793  1
  O  O28  4  0.11305792  -0.05982746  -0.39987390  1
  O  O29  4  0.11599195  0.20357695  0.13135497  1
  O  O30  4  0.14208082  0.73642983  0.74618357  1
  O  O31  4  0.15196127  0.73033903  1.02197185  1
  O  O32  4  0.15809622  0.09530359  0.36495316  1
  O  O33  4  0.16970076  0.21718703  -0.32462451  1
  O  O34  4  0.17596021  0.34565858  1.32027726  1
  O  O35  4  0.22742417  0.60180584  1.38953460  1
