###############################################################################################
#
# CIF file generated by modified CIFWriter class 
# in pymatgen (v2025.03.10) https://pymatgen.org/
#
###############################################################################################
data_PBE+MBD_tight_a01f859f16f1860
_symmetry_space_group_name_H-M   P2/c
_cell_length_a   14.75286581
_cell_length_b   8.29023965
_cell_length_c   14.14080684
_cell_angle_alpha   90.00000000
_cell_angle_beta   75.90545395
_cell_angle_gamma   90.00000000
_symmetry_Int_Tables_number   13
_chemical_formula_moiety   'C6 H6 N12 O12'
_chemical_formula_sum   'H24 C24 N48 O48'
_cell_volume   1677.42255182
_cell_formula_units_Z   4
loop_
 _symmetry_equiv_pos_site_id
 _symmetry_equiv_pos_as_xyz
  1  'x, y, z'
  2  '-x, -y, -z'
  3  '-x, y, -z+1/2'
  4  'x, -y, z+1/2'
loop_
 _atom_site_type_symbol
 _atom_site_label
 _atom_site_symmetry_multiplicity
 _atom_site_fract_x
 _atom_site_fract_y
 _atom_site_fract_z
 _atom_site_occupancy
  H  H0  4  0.07258355  0.29975028  0.20631434  1
  H  H1  4  0.17968214  0.21400192  0.29654859  1
  H  H2  4  0.22233963  0.74797842  0.42921105  1
  H  H3  4  0.23891290  0.52611462  -0.02305609  1
  H  H4  4  0.41606340  0.88863193  0.58309026  1
  H  H5  4  0.42968701  0.38899498  0.13417806  1
  C  C6  4  0.14376131  0.69731511  0.66099800  1
  C  C7  4  0.21642549  0.75399006  0.72207806  1
  C  C8  4  0.23597568  0.26001561  0.00176418  1
  C  C9  4  0.24634216  0.44118974  0.03359235  1
  C  C10  4  0.35056114  0.17826424  0.09281952  1
  C  C11  4  0.35973331  0.35980964  0.12625600  1
  N  N12  4  0.06997866  0.83423823  0.54386595  1
  N  N13  4  0.09392072  0.43472447  0.60381288  1
  N  N14  4  0.15536183  0.19773147  0.07600762  1
  N  N15  4  0.16990468  0.53627558  0.62102128  1
  N  N16  4  0.24292568  -0.03953870  0.17390587  1
  N  N17  4  0.27333387  0.49942791  0.27732024  1
  N  N18  4  0.27738799  0.88314528  0.67480121  1
  N  N19  4  0.29015712  0.36299135  0.22001143  1
  N  N20  4  0.32136935  0.17784748  0.00266511  1
  N  N21  4  0.33533654  0.46549860  0.05558012  1
  N  N22  4  0.36222284  0.06837225  -0.07338604  1
  N  N23  4  0.39218384  0.59625717  0.01443395  1
  O  O24  4  -0.00200437  0.83522896  0.60833692  1
  O  O25  4  0.01515417  0.53053083  0.14897131  1
  O  O26  4  0.08081050  0.13557713  -0.04215500  1
  O  O27  4  0.11896097  0.32205588  0.54845137  1
  O  O28  4  0.16830006  -0.06832789  0.23146476  1
  O  O29  4  0.19684563  0.49550898  0.83692620  1
  O  O30  4  0.29298104  1.13231132  0.61638040  1
  O  O31  4  0.31820138  0.95536121  0.36512851  1
  O  O32  4  0.33657257  0.40120759  0.76580249  1
  O  O33  4  0.37286736  0.66055222  -0.05616893  1
  O  O34  4  0.43820914  0.98619628  0.42949410  1
  O  O35  4  0.45667007  0.36935645  0.55112436  1
