###############################################################################################
#
# CIF file generated by modified CIFWriter class 
# in pymatgen (v2025.03.10) https://pymatgen.org/
#
###############################################################################################
data_PBE+MBD_tight_a10200147ae87cc
_symmetry_space_group_name_H-M   P4_3
_cell_length_a   7.99951399
_cell_length_b   7.99951399
_cell_length_c   27.63192595
_cell_angle_alpha   90.00000000
_cell_angle_beta   90.00000000
_cell_angle_gamma   90.00000000
_symmetry_Int_Tables_number   78
_chemical_formula_moiety   'C6 H6 N12 O12'
_chemical_formula_sum   'H24 C24 N48 O48'
_cell_volume   1768.22839670
_cell_formula_units_Z   4
loop_
 _symmetry_equiv_pos_site_id
 _symmetry_equiv_pos_as_xyz
  1  'x, y, z'
  2  '-y, x, z+3/4'
  3  '-x, -y, z+1/2'
  4  'y, -x, z+1/4'
loop_
 _atom_site_type_symbol
 _atom_site_label
 _atom_site_symmetry_multiplicity
 _atom_site_fract_x
 _atom_site_fract_y
 _atom_site_fract_z
 _atom_site_occupancy
  H  H0  4  -0.14016657  0.25203592  0.56609791  1
  H  H1  4  -0.07071673  0.71303601  0.73654184  1
  H  H2  4  -0.05963952  0.90694440  0.91252770  1
  H  H3  4  -0.00386743  -0.15645698  0.48137861  1
  H  H4  4  0.14847667  0.33635590  0.57138039  1
  H  H5  4  0.16707428  -0.29183061  0.61303850  1
  C  C6  4  -0.05524438  0.14498947  0.56590967  1
  C  C7  4  -0.04004140  0.78346183  0.76932135  1
  C  C8  4  -0.02522858  0.91183080  0.87439961  1
  C  C9  4  0.02586191  -0.09461996  0.51563859  1
  C  C10  4  0.13549745  0.20072957  0.56971070  1
  C  C11  4  0.13955398  -0.18160167  0.59110062  1
  N  N12  4  -0.25349839  0.58824566  0.80240938  1
  N  N13  4  -0.13254992  0.71991607  0.81094080  1
  N  N14  4  -0.05747007  -0.37288619  0.54855691  1
  N  N15  4  -0.04282196  1.21840554  0.87089055  1
  N  N16  4  0.00508521  -0.20995159  0.55634287  1
  N  N17  4  0.04350410  1.07278197  0.86015668  1
  N  N18  4  0.05280676  1.07565393  0.77149067  1
  N  N19  4  0.07459299  1.22361636  0.74274586  1
  N  N20  4  0.12052743  0.81291447  0.86403960  1
  N  N21  4  0.13764968  0.77010953  0.77871743  1
  N  N22  4  0.15742397  0.66401669  0.88793964  1
  N  N23  4  0.24817841  0.73107914  0.74038871  1
  O  O24  4  -0.36163581  0.57310960  0.83303063  1
  O  O25  4  -0.22723178  0.50215501  0.76681987  1
  O  O26  4  -0.14439415  1.20904939  0.90429252  1
  O  O27  4  -0.12650564  -0.39939931  0.51007799  1
  O  O28  4  -0.04168111  -0.46907188  0.58304168  1
  O  O29  4  -0.01872862  1.23559881  0.70785578  1
  O  O30  4  -0.00693690  1.34174452  0.84681984  1
  O  O31  4  0.06769029  0.63086649  0.92268991  1
  O  O32  4  0.18260290  0.68649201  0.70237769  1
  O  O33  4  0.18748159  1.31648270  0.75466561  1
  O  O34  4  0.25766398  0.39732468  0.49907263  1
  O  O35  4  0.27601268  0.58531934  0.87201242  1
