###############################################################################################
#
# CIF file generated by modified CIFWriter class 
# in pymatgen (v2025.03.10) https://pymatgen.org/
#
###############################################################################################
data_PBE+MBD_tight_a18172ec98bcc2a
_symmetry_space_group_name_H-M   Pca2_1
_cell_length_a   15.78363114
_cell_length_b   7.83146883
_cell_length_c   13.22359065
_cell_angle_alpha   90.00000000
_cell_angle_beta   90.00000000
_cell_angle_gamma   90.00000000
_symmetry_Int_Tables_number   29
_chemical_formula_moiety   'C6 H6 N12 O12'
_chemical_formula_sum   'H24 C24 N48 O48'
_cell_volume   1634.55501788
_cell_formula_units_Z   4
loop_
 _symmetry_equiv_pos_site_id
 _symmetry_equiv_pos_as_xyz
  1  'x, y, z'
  2  '-x, -y, z+1/2'
  3  '-x+1/2, y, z+1/2'
  4  'x+1/2, -y, z'
loop_
 _atom_site_type_symbol
 _atom_site_label
 _atom_site_symmetry_multiplicity
 _atom_site_fract_x
 _atom_site_fract_y
 _atom_site_fract_z
 _atom_site_occupancy
  H  H0  4  0.00931987  0.32016866  0.29694562  1
  H  H1  4  0.01285005  0.82519077  0.19933974  1
  H  H2  4  0.08338608  0.40319513  0.45020114  1
  H  H3  4  0.09039919  0.90657434  0.34930610  1
  H  H4  4  0.24333886  0.67900709  0.66186184  1
  H  H5  4  0.24580077  0.38915107  0.71766899  1
  C  C6  4  0.05273814  0.42703579  0.28506806  1
  C  C7  4  0.05502648  0.72438669  0.22631880  1
  C  C8  4  0.10223211  0.47925987  0.38462174  1
  C  C9  4  0.10595048  0.77710483  0.32496227  1
  C  C10  4  0.19855313  0.45836465  0.24499256  1
  C  C11  4  0.20020618  0.65379733  0.20718034  1
  N  N12  4  -0.07350289  0.55000456  0.20332239  1
  N  N13  4  0.00614042  0.57384612  0.25076917  1
  N  N14  4  0.01933228  0.70072768  0.47108314  1
  N  N15  4  0.08947892  0.65993453  0.40796535  1
  N  N16  4  0.11971746  0.37775119  0.21297879  1
  N  N17  4  0.12083661  0.76376246  0.05637798  1
  N  N18  4  0.12215673  0.68983705  0.15354086  1
  N  N19  4  0.12310489  0.20314363  0.18445296  1
  N  N20  4  0.18863339  0.44757066  0.35434074  1
  N  N21  4  0.19466029  0.76374276  0.29618708  1
  N  N22  4  0.24543162  0.43480052  0.92299298  1
  N  N23  4  0.24558018  0.91542102  0.30171019  1
  O  O24  4  -0.10679718  0.67798511  0.16866224  1
  O  O25  4  -0.10258215  0.40537630  0.20601671  1
  O  O26  4  -0.00725228  0.58475394  0.52450545  1
  O  O27  4  -0.00580318  0.84799629  0.46843578  1
  O  O28  4  0.05062356  0.80213376  0.02441419  1
  O  O29  4  0.05831855  0.11962814  0.19918983  1
  O  O30  4  0.17396240  0.42283395  0.88743691  1
  O  O31  4  0.18826334  0.91276387  0.75486416  1
  O  O32  4  0.18826864  0.15400376  0.14446689  1
  O  O33  4  0.18895430  0.77595580  0.01284572  1
  O  O34  4  0.21835675  1.02822615  0.35709846  1
  O  O35  4  0.23400224  0.43482037  0.51236161  1
