###############################################################################################
#
# CIF file generated by modified CIFWriter class 
# in pymatgen (v2025.03.10) https://pymatgen.org/
#
###############################################################################################
data_PBE+MBD_tight_a186550aadbf831
_symmetry_space_group_name_H-M   Cc
_cell_length_a   13.54016818
_cell_length_b   13.67450598
_cell_length_c   9.99302461
_cell_angle_alpha   90.00000000
_cell_angle_beta   108.53835772
_cell_angle_gamma   90.00000000
_symmetry_Int_Tables_number   9
_chemical_formula_moiety   'C6 H6 N12 O12'
_chemical_formula_sum   'H24 C24 N48 O48'
_cell_volume   1754.25149059
_cell_formula_units_Z   4
loop_
 _symmetry_equiv_pos_site_id
 _symmetry_equiv_pos_as_xyz
  1  'x, y, z'
  2  'x, -y, z+1/2'
  3  'x+1/2, y+1/2, z'
  4  'x+1/2, -y+1/2, z+1/2'
loop_
 _atom_site_type_symbol
 _atom_site_label
 _atom_site_symmetry_multiplicity
 _atom_site_fract_x
 _atom_site_fract_y
 _atom_site_fract_z
 _atom_site_occupancy
  H  H0  4  0.10820119  0.28409205  1.01164600  1
  H  H1  4  0.13618603  0.16882262  0.84316603  1
  H  H2  4  0.34144445  0.53723322  0.45443424  1
  H  H3  4  0.36578980  0.13041110  1.21007403  1
  H  H4  4  0.36880093  0.34662645  0.78763816  1
  H  H5  4  0.50023845  0.23053104  1.18148705  1
  C  C6  4  0.18950171  0.28178815  1.01404586  1
  C  C7  4  0.20761833  0.20652400  0.90337695  1
  C  C8  4  0.32751377  0.61237529  0.48099273  1
  C  C9  4  0.33509417  0.18323478  1.12498198  1
  C  C10  4  0.34559583  0.68863572  0.37108785  1
  C  C11  4  0.42552415  0.25072098  1.10559555  1
  N  N12  4  0.14446947  0.56192702  0.38962419  1
  N  N13  4  0.20547544  0.79045339  0.74909367  1
  N  N14  4  0.21525140  0.23772652  0.66102268  1
  N  N15  4  0.22197707  0.62004465  0.48938520  1
  N  N16  4  0.23718035  0.03888105  1.00270321  1
  N  N17  4  0.24927340  0.74064907  0.30918311  1
  N  N18  4  0.25638127  0.24694155  1.15046519  1
  N  N19  4  0.28194621  0.13507969  0.99035258  1
  N  N20  4  0.40312999  0.64566549  0.61213929  1
  N  N21  4  0.41491060  0.59959856  0.73918041  1
  N  N22  4  0.42905437  0.25063101  0.96233012  1
  N  N23  4  0.46637095  0.16793789  0.91121398  1
  O  O24  4  0.05464663  0.59151151  0.35995222  1
  O  O25  4  0.11666363  0.23744624  1.22988168  1
  O  O26  4  0.14330622  0.82041401  0.12135930  1
  O  O27  4  0.15995274  0.01623100  0.90582697  1
  O  O28  4  0.17533618  0.48807976  0.34759452  1
  O  O29  4  0.25813436  0.28289237  0.59047904  1
  O  O30  4  0.26035417  0.15880934  1.34331323  1
  O  O31  4  0.28529816  -0.00909973  1.10502091  1
  O  O32  4  0.38031841  0.48385134  1.23217159  1
  O  O33  4  0.44178377  0.16056407  0.78317914  1
  O  O34  4  0.46098872  0.35405093  1.34648281  1
  O  O35  4  0.52153111  0.88679499  0.50197179  1
