###############################################################################################
#
# CIF file generated by modified CIFWriter class 
# in pymatgen (v2025.03.10) https://pymatgen.org/
#
###############################################################################################
data_PBE+MBD_tight_a2c82798326856
_symmetry_space_group_name_H-M   P2_1/c
_cell_length_a   16.19735426
_cell_length_b   13.34011948
_cell_length_c   8.80314945
_cell_angle_alpha   90.00000000
_cell_angle_beta   63.28087575
_cell_angle_gamma   90.00000000
_symmetry_Int_Tables_number   14
_chemical_formula_moiety   'C6 H6 N12 O12'
_chemical_formula_sum   'H24 C24 N48 O48'
_cell_volume   1699.02972641
_cell_formula_units_Z   4
loop_
 _symmetry_equiv_pos_site_id
 _symmetry_equiv_pos_as_xyz
  1  'x, y, z'
  2  '-x, -y, -z'
  3  '-x, y+1/2, -z+1/2'
  4  'x, -y+1/2, z+1/2'
loop_
 _atom_site_type_symbol
 _atom_site_label
 _atom_site_symmetry_multiplicity
 _atom_site_fract_x
 _atom_site_fract_y
 _atom_site_fract_z
 _atom_site_occupancy
  H  H0  4  0.11397200  0.31916417  0.16781019  1
  H  H1  4  0.13328831  0.57820812  0.40266123  1
  H  H2  4  0.21142902  -0.18758504  0.66849210  1
  H  H3  4  0.25104477  0.30568828  0.20972294  1
  H  H4  4  0.25430015  0.51443916  -0.23662033  1
  H  H5  4  0.39160771  -0.00242688  0.31191775  1
  C  C6  4  0.15369255  0.11116800  0.63785477  1
  C  C7  4  0.16697220  0.53531638  0.28471012  1
  C  C8  4  0.22101437  -0.10921119  0.62755634  1
  C  C9  4  0.23770803  -0.00415639  0.39755550  1
  C  C10  4  0.24341276  0.37991185  0.16595102  1
  C  C11  4  0.32681120  0.00440554  0.42892376  1
  N  N12  4  0.02366814  -0.01005903  0.75738129  1
  N  N13  4  0.10316786  0.46974571  0.25655143  1
  N  N14  4  0.15864083  0.35472481  -0.14221502  1
  N  N15  4  0.17184830  0.67415379  -0.08423153  1
  N  N16  4  0.18065750  0.41618696  -0.03684754  1
  N  N17  4  0.18896342  -0.09111687  0.49898418  1
  N  N18  4  0.22544405  0.04347554  0.79611564  1
  N  N19  4  0.28823477  0.02470626  0.86114423  1
  N  N20  4  0.31811968  0.57982727  0.04361982  1
  N  N21  4  0.32330405  0.10011493  0.50660182  1
  N  N22  4  0.38443582  -0.16222439  0.47149473  1
  N  N23  4  0.40777349  0.15455941  0.46593909  1
  O  O24  4  -0.01501858  0.04187642  0.69363770  1
  O  O25  4  -0.00069522  -0.09217514  0.82651581  1
  O  O26  4  0.10919786  0.28196045  -0.07442268  1
  O  O27  4  0.14975147  0.75236799  -0.00322720  1
  O  O28  4  0.17713597  -0.15756147  0.27530693  1
  O  O29  4  0.19219952  0.37776597  -0.29280967  1
  O  O30  4  0.27841746  -0.05459347  0.93752386  1
  O  O31  4  0.34469907  0.40876814  0.33843823  1
  O  O32  4  0.36262439  -0.24023385  0.55139194  1
  O  O33  4  0.39888514  0.26607120  0.03941367  1
  O  O34  4  0.45554258  -0.14181341  0.34584556  1
  O  O35  4  0.47808063  0.38364527  -0.14216913  1
