###############################################################################################
#
# CIF file generated by modified CIFWriter class 
# in pymatgen (v2025.03.10) https://pymatgen.org/
#
###############################################################################################
data_PBE+MBD_tight_a2d8c5f7f5995d7
_symmetry_space_group_name_H-M   Pna2_1
_cell_length_a   15.44847973
_cell_length_b   8.21099503
_cell_length_c   12.77943086
_cell_angle_alpha   90.00000000
_cell_angle_beta   90.00000000
_cell_angle_gamma   90.00000000
_symmetry_Int_Tables_number   33
_chemical_formula_moiety   'C6 H6 N12 O12'
_chemical_formula_sum   'H24 C24 N48 O48'
_cell_volume   1621.03745317
_cell_formula_units_Z   4
loop_
 _symmetry_equiv_pos_site_id
 _symmetry_equiv_pos_as_xyz
  1  'x, y, z'
  2  '-x, -y, z+1/2'
  3  '-x+1/2, y+1/2, z+1/2'
  4  'x+1/2, -y+1/2, z'
loop_
 _atom_site_type_symbol
 _atom_site_label
 _atom_site_symmetry_multiplicity
 _atom_site_fract_x
 _atom_site_fract_y
 _atom_site_fract_z
 _atom_site_occupancy
  H  H0  4  -0.07103595  0.89441989  0.67163881  1
  H  H1  4  0.00740526  0.42086783  0.60672895  1
  H  H2  4  0.07374107  0.99320656  0.63200809  1
  H  H3  4  0.09034757  0.78347091  0.91659605  1
  H  H4  4  0.13384378  0.51220445  0.87676122  1
  H  H5  4  0.14997623  0.51889955  0.56150098  1
  C  C6  4  -0.02044382  0.80682292  0.69214866  1
  C  C7  4  0.02623560  0.52696369  0.65289781  1
  C  C8  4  0.07435713  0.87038960  0.66482637  1
  C  C9  4  0.07705459  0.75412211  0.83476010  1
  C  C10  4  0.10661964  0.57179103  0.80778850  1
  C  C11  4  0.12023193  0.59085908  0.62403630  1
  N  N12  4  -0.11755683  0.62015536  0.59215167  1
  N  N13  4  -0.08093670  0.72646201  0.86517643  1
  N  N14  4  -0.03467036  0.65635506  0.63606615  1
  N  N15  4  -0.01294204  0.78510214  0.80568291  1
  N  N16  4  0.02821710  0.31283049  0.78901170  1
  N  N17  4  0.03216775  0.48298161  0.76472430  1
  N  N18  4  0.11012932  0.79575512  0.48414193  1
  N  N19  4  0.11726334  0.76073412  0.59254531  1
  N  N20  4  0.11933142  0.86523150  0.76430551  1
  N  N21  4  0.16779893  0.99931958  0.80068246  1
  N  N22  4  0.16787085  0.57599597  0.72161469  1
  N  N23  4  0.24170073  0.46923936  0.72602177  1
  O  O24  4  -0.16858476  0.73255267  0.58705390  1
  O  O25  4  -0.15241195  0.72651076  0.82386413  1
  O  O26  4  -0.12713483  0.48067621  0.56016379  1
  O  O27  4  -0.06264703  0.68385215  0.95489313  1
  O  O28  4  -0.00684773  0.22486078  0.72452752  1
  O  O29  4  0.05706966  0.27340249  0.87434806  1
  O  O30  4  0.08840158  0.93496015  0.46207938  1
  O  O31  4  0.12803372  0.68491617  0.42434222  1
  O  O32  4  0.18713230  1.09960246  0.73351768  1
  O  O33  4  0.18745906  0.99783950  0.89297051  1
  O  O34  4  0.22541658  -0.06520355  0.14208758  1
  O  O35  4  0.23437943  -0.06729892  0.31359478  1
