###############################################################################################
#
# CIF file generated by modified CIFWriter class 
# in pymatgen (v2025.03.10) https://pymatgen.org/
#
###############################################################################################
data_PBE+MBD_tight_a3348bf91902796
_symmetry_space_group_name_H-M   P2_1/c
_cell_length_a   13.45027069
_cell_length_b   8.22235315
_cell_length_c   13.88378335
_cell_angle_alpha   90.00000000
_cell_angle_beta   93.77774223
_cell_angle_gamma   90.00000000
_symmetry_Int_Tables_number   14
_chemical_formula_moiety   'C6 H6 N12 O12'
_chemical_formula_sum   'H24 C24 N48 O48'
_cell_volume   1532.11121060
_cell_formula_units_Z   4
loop_
 _symmetry_equiv_pos_site_id
 _symmetry_equiv_pos_as_xyz
  1  'x, y, z'
  2  '-x, -y, -z'
  3  '-x, y+1/2, -z+1/2'
  4  'x, -y+1/2, z+1/2'
loop_
 _atom_site_type_symbol
 _atom_site_label
 _atom_site_symmetry_multiplicity
 _atom_site_fract_x
 _atom_site_fract_y
 _atom_site_fract_z
 _atom_site_occupancy
  H  H0  4  0.09907024  0.51388925  0.73954202  1
  H  H1  4  0.14317319  0.79115544  0.78758249  1
  H  H2  4  0.19307647  1.14941976  0.51546584  1
  H  H3  4  0.23308575  0.62444747  1.06204184  1
  H  H4  4  0.39954150  0.94169453  0.23822939  1
  H  H5  4  0.45489863  0.46141350  0.89648516  1
  C  C6  4  0.16343567  0.98047464  0.29193519  1
  C  C7  4  0.19146835  0.79987137  0.32431651  1
  C  C8  4  0.21939417  1.07802542  0.45560426  1
  C  C9  4  0.24645978  0.60279257  0.98648175  1
  C  C10  4  0.33938948  0.94112117  0.28756843  1
  C  C11  4  0.37605679  1.00589298  0.39366916  1
  N  N12  4  0.04497418  0.38360242  0.89440594  1
  N  N13  4  0.13692403  0.65274635  0.46878806  1
  N  N14  4  0.14379378  1.07860425  0.37575567  1
  N  N15  4  0.18555501  0.71207314  0.92699505  1
  N  N16  4  0.25311236  0.35471623  0.67455065  1
  N  N17  4  0.25354011  1.03497529  0.25107951  1
  N  N18  4  0.29534122  0.71953147  0.79823270  1
  N  N19  4  0.31409914  0.36292637  0.92474209  1
  N  N20  4  0.32007137  0.65449416  0.23444561  1
  N  N21  4  0.32645784  0.20356214  0.89530543  1
  N  N22  4  0.35304877  0.60828504  0.96916165  1
  N  N23  4  0.40815889  0.74839671  0.48187800  1
  O  O24  4  -0.01799684  1.09728373  0.32730970  1
  O  O25  4  0.03162471  0.33295566  0.97535634  1
  O  O26  4  0.08429982  0.57107539  0.41314153  1
  O  O27  4  0.15092417  0.63786066  0.55605857  1
  O  O28  4  0.17168250  0.29429141  0.65054545  1
  O  O29  4  0.25640158  0.95003540  0.71727734  1
  O  O30  4  0.26123920  1.39143309  0.41642222  1
  O  O31  4  0.33319952  1.17194550  0.14114818  1
  O  O32  4  0.37280231  0.64419682  0.53222780  1
  O  O33  4  0.40123033  1.32531341  0.35223720  1
  O  O34  4  0.40405850  0.65993435  0.20603308  1
  O  O35  4  0.48774173  0.75429607  0.94343224  1
