###############################################################################################
#
# CIF file generated by modified CIFWriter class 
# in pymatgen (v2025.03.10) https://pymatgen.org/
#
###############################################################################################
data_PBE+MBD_tight_a42b2927ebdd205
_symmetry_space_group_name_H-M   P2_12_12_1
_cell_length_a   11.85768774
_cell_length_b   9.82435069
_cell_length_c   15.08197581
_cell_angle_alpha   90.00000000
_cell_angle_beta   90.00000000
_cell_angle_gamma   90.00000000
_symmetry_Int_Tables_number   19
_chemical_formula_moiety   'C6 H6 N12 O12'
_chemical_formula_sum   'H24 C24 N48 O48'
_cell_volume   1756.96093798
_cell_formula_units_Z   4
loop_
 _symmetry_equiv_pos_site_id
 _symmetry_equiv_pos_as_xyz
  1  'x, y, z'
  2  '-x+1/2, -y, z+1/2'
  3  '-x, y+1/2, -z+1/2'
  4  'x+1/2, -y+1/2, -z'
loop_
 _atom_site_type_symbol
 _atom_site_label
 _atom_site_symmetry_multiplicity
 _atom_site_fract_x
 _atom_site_fract_y
 _atom_site_fract_z
 _atom_site_occupancy
  H  H0  4  -0.04800520  0.47668670  0.40523109  1
  H  H1  4  0.02760437  0.48362586  0.25658051  1
  H  H2  4  0.12172867  0.57932758  0.94920496  1
  H  H3  4  0.18839636  0.76600930  0.48396130  1
  H  H4  4  0.23230971  0.23014230  0.83467453  1
  H  H5  4  0.23888981  0.25605433  0.40558554  1
  C  C6  4  0.04281392  0.49638907  0.40452583  1
  C  C7  4  0.09294529  0.49985588  0.30661785  1
  C  C8  4  0.18293136  0.66757906  0.45061295  1
  C  C9  4  0.19924031  0.52925199  0.92731726  1
  C  C10  4  0.20798681  0.36005112  0.39752878  1
  C  C11  4  0.23433686  0.67026190  0.35364611  1
  N  N12  4  -0.01566004  0.69136066  0.49877298  1
  N  N13  4  0.04350615  0.27347553  0.48400472  1
  N  N14  4  0.06622411  0.62612466  0.44522427  1
  N  N15  4  0.08103795  0.42885008  0.80569331  1
  N  N16  4  0.10315968  0.72108303  0.23068725  1
  N  N17  4  0.10468847  0.38509163  0.44721138  1
  N  N18  4  0.14748876  0.62932922  0.29095705  1
  N  N19  4  0.16666409  0.28391669  0.24355277  1
  N  N20  4  0.17557826  0.38995261  0.30633182  1
  N  N21  4  0.17930235  0.43243111  0.85779770  1
  N  N22  4  0.22681264  0.51616603  0.57692726  1
  N  N23  4  0.24481382  0.43502272  0.99353112  1
  O  O24  4  -0.10656193  0.63335896  0.50610525  1
  O  O25  4  -0.05353231  0.29892055  0.50611715  1
  O  O26  4  0.01156047  0.80136675  0.52975817  1
  O  O27  4  0.01571472  0.52341477  0.81619977  1
  O  O28  4  0.02657371  0.67902660  0.18301118  1
  O  O29  4  0.07366751  0.33166473  0.75540060  1
  O  O30  4  0.09533805  0.16742183  0.49342480  1
  O  O31  4  0.10891556  0.30934009  0.17776036  1
  O  O32  4  0.14397322  0.83593553  0.22982770  1
  O  O33  4  0.16494067  0.58869865  0.62203089  1
  O  O34  4  0.22022368  0.18080264  0.25869286  1
  O  O35  4  0.23101503  0.59327694  1.09775748  1
