###############################################################################################
#
# CIF file generated by modified CIFWriter class 
# in pymatgen (v2025.03.10) https://pymatgen.org/
#
###############################################################################################
data_PBE+MBD_tight_a4984454b38de53
_symmetry_space_group_name_H-M   P2/c
_cell_length_a   9.45639635
_cell_length_b   7.93735752
_cell_length_c   26.78784103
_cell_angle_alpha   90.00000000
_cell_angle_beta   68.13129481
_cell_angle_gamma   90.00000000
_symmetry_Int_Tables_number   13
_chemical_formula_moiety   'C6 H6 N12 O12'
_chemical_formula_sum   'H24 C24 N48 O48'
_cell_volume   1865.97552444
_cell_formula_units_Z   4
loop_
 _symmetry_equiv_pos_site_id
 _symmetry_equiv_pos_as_xyz
  1  'x, y, z'
  2  '-x, -y, -z'
  3  '-x, y, -z+1/2'
  4  'x, -y, z+1/2'
loop_
 _atom_site_type_symbol
 _atom_site_label
 _atom_site_symmetry_multiplicity
 _atom_site_fract_x
 _atom_site_fract_y
 _atom_site_fract_z
 _atom_site_occupancy
  H  H0  4  -0.21864635  0.67011865  0.93756133  1
  H  H1  4  -0.03274569  0.45359693  0.46757142  1
  H  H2  4  0.08856941  -0.04116744  0.43376771  1
  H  H3  4  0.09116900  0.65636917  0.77979308  1
  H  H4  4  0.26308976  1.02906427  0.84341746  1
  H  H5  4  0.28134036  0.46714030  0.30965122  1
  C  C6  4  -0.10283576  0.28904441  0.41339467  1
  C  C7  4  0.02049165  0.37191626  0.43285173  1
  C  C8  4  0.07628247  0.92229656  0.91517116  1
  C  C9  4  0.08079094  0.70177268  0.81963974  1
  C  C10  4  0.19460111  0.08580944  0.35419337  1
  C  C11  4  0.20464842  0.61943118  0.83921840  1
  N  N12  4  -0.17855598  0.42737250  0.34434627  1
  N  N13  4  -0.16089029  -0.01281039  0.40408401  1
  N  N14  4  -0.07991679  0.10919761  0.42045523  1
  N  N15  4  -0.07017736  0.33271272  0.35813419  1
  N  N16  4  0.09000826  0.77747159  0.94624900  1
  N  N17  4  0.11193643  0.88312321  0.81878747  1
  N  N18  4  0.12514694  0.53087566  0.88883335  1
  N  N19  4  0.16854792  0.97004452  0.76725681  1
  N  N20  4  0.18174138  0.37510278  0.89849162  1
  N  N21  4  0.20887592  0.76560180  0.96469231  1
  N  N22  4  0.28887998  0.23593705  0.34826218  1
  N  N23  4  0.44839650  0.77727974  0.81647747  1
  O  O24  4  -0.30156487  0.45052682  0.38042244  1
  O  O25  4  -0.27947168  0.03425039  0.40056283  1
  O  O26  4  -0.13598823  0.47577998  0.29779368  1
  O  O27  4  -0.10487117  -0.15484433  0.39669995  1
  O  O28  4  0.11876773  0.31456843  0.94353621  1
  O  O29  4  0.15534770  0.10441401  0.22949845  1
  O  O30  4  0.21585858  1.11182245  0.76839863  1
  O  O31  4  0.23005800  0.62537878  0.98016555  1
  O  O32  4  0.27757578  0.10372833  0.46487206  1
  O  O33  4  0.28397374  0.68841798  0.36051108  1
  O  O34  4  0.48456953  0.64391371  0.69856337  1
  O  O35  4  0.49843438  0.08070709  0.19020199  1
