###############################################################################################
#
# CIF file generated by modified CIFWriter class 
# in pymatgen (v2025.03.10) https://pymatgen.org/
#
###############################################################################################
data_PBE+MBD_tight_a4f667988cc1dfd
_symmetry_space_group_name_H-M   Cc
_cell_length_a   10.77411021
_cell_length_b   15.80527740
_cell_length_c   10.27978211
_cell_angle_alpha   90.00000000
_cell_angle_beta   89.40908151
_cell_angle_gamma   90.00000000
_symmetry_Int_Tables_number   9
_chemical_formula_moiety   'C6 H6 N12 O12'
_chemical_formula_sum   'H24 C24 N48 O48'
_cell_volume   1750.42838711
_cell_formula_units_Z   4
loop_
 _symmetry_equiv_pos_site_id
 _symmetry_equiv_pos_as_xyz
  1  'x, y, z'
  2  'x, -y, z+1/2'
  3  'x+1/2, y+1/2, z'
  4  'x+1/2, -y+1/2, z+1/2'
loop_
 _atom_site_type_symbol
 _atom_site_label
 _atom_site_symmetry_multiplicity
 _atom_site_fract_x
 _atom_site_fract_y
 _atom_site_fract_z
 _atom_site_occupancy
  H  H0  4  -0.08774021  0.60419094  0.35806626  1
  H  H1  4  0.05063974  0.84128615  0.35744889  1
  H  H2  4  0.09161093  0.60071154  0.49645308  1
  H  H3  4  0.14470173  0.39991604  0.53307932  1
  H  H4  4  0.18559252  0.15899176  0.67040583  1
  H  H5  4  0.32407921  0.39607034  0.67146208  1
  C  C6  4  -0.00836572  0.36260317  0.81486943  1
  C  C7  4  0.07302149  0.22315367  0.82678753  1
  C  C8  4  0.10875628  0.36359939  0.90717997  1
  C  C9  4  0.12757571  0.63604883  0.12209738  1
  C  C10  4  0.16321477  0.22331225  0.70167479  1
  C  C11  4  0.24472060  0.36270593  0.71442308  1
  N  N12  4  -0.15255659  0.24397515  0.85473094  1
  N  N13  4  -0.06135168  0.54405244  0.13098280  1
  N  N14  4  -0.03795825  0.27183066  0.79716528  1
  N  N15  4  0.02450824  0.40097280  0.69304528  1
  N  N16  4  0.03042104  0.75843018  0.00749557  1
  N  N17  4  0.11350306  0.27384015  0.59647867  1
  N  N18  4  0.12275544  0.27341003  0.93230747  1
  N  N19  4  0.20604655  0.75910002  0.52085794  1
  N  N20  4  0.21180398  0.40078711  0.83647309  1
  N  N21  4  0.27425355  0.27188898  0.73162038  1
  N  N22  4  0.29760829  0.45559413  0.89890655  1
  N  N23  4  0.38883408  0.24411392  0.67387856  1
  O  O24  4  -0.23424005  0.29715241  0.86259810  1
  O  O25  4  -0.15892151  0.83085880  0.38486248  1
  O  O26  4  -0.15317405  0.47536350  0.69401468  1
  O  O27  4  -0.03123552  0.48038969  0.52208061  1
  O  O28  4  -0.01395160  0.70685305  -0.06821602  1
  O  O29  4  0.01195109  0.16511210  0.51230055  1
  O  O30  4  0.22424035  0.83557424  0.51570559  1
  O  O31  4  0.25087455  0.70771212  0.59658546  1
  O  O32  4  0.26748622  0.52023402  0.50796279  1
  O  O33  4  0.38940571  0.52481618  0.33597247  1
  O  O34  4  0.39499414  0.16935796  0.64325150  1
  O  O35  4  0.47064846  0.29721405  0.66636266  1
