###############################################################################################
#
# CIF file generated by modified CIFWriter class 
# in pymatgen (v2025.03.10) https://pymatgen.org/
#
###############################################################################################
data_PBE+MBD_tight_a65567c21568b1e
_symmetry_space_group_name_H-M   P2/c
_cell_length_a   9.63197299
_cell_length_b   13.84175673
_cell_length_c   13.33093485
_cell_angle_alpha   90.00000000
_cell_angle_beta   76.55490414
_cell_angle_gamma   90.00000000
_symmetry_Int_Tables_number   13
_chemical_formula_moiety   'C6 H6 N12 O12'
_chemical_formula_sum   'H24 C24 N48 O48'
_cell_volume   1728.61505714
_cell_formula_units_Z   4
loop_
 _symmetry_equiv_pos_site_id
 _symmetry_equiv_pos_as_xyz
  1  'x, y, z'
  2  '-x, -y, -z'
  3  '-x, y, -z+1/2'
  4  'x, -y, z+1/2'
loop_
 _atom_site_type_symbol
 _atom_site_label
 _atom_site_symmetry_multiplicity
 _atom_site_fract_x
 _atom_site_fract_y
 _atom_site_fract_z
 _atom_site_occupancy
  H  H0  4  0.12595495  0.85192260  1.08625343  1
  H  H1  4  0.26788152  0.57725922  1.07279036  1
  H  H2  4  0.33031883  0.15146780  0.66569017  1
  H  H3  4  0.39305655  0.16105799  0.12333642  1
  H  H4  4  0.40021260  0.84591177  0.79868901  1
  H  H5  4  0.42378182  0.43092745  0.40761691  1
  C  C6  4  0.21578282  0.81034146  1.04146062  1
  C  C7  4  0.29835602  0.35026034  0.54325309  1
  C  C8  4  0.34837115  0.19225050  0.59347008  1
  C  C9  4  0.37946421  0.19484740  0.37069186  1
  C  C10  4  0.40447952  0.64430770  0.93165020  1
  C  C11  4  0.48737952  0.19832023  0.07831750  1
  N  N12  4  0.04158911  0.67990337  1.11013462  1
  N  N13  4  0.16097038  0.09543568  0.39690179  1
  N  N14  4  0.17382230  0.29174313  0.53745418  1
  N  N15  4  0.23943138  0.32950976  0.31714125  1
  N  N16  4  0.26219390  0.14856408  0.44034655  1
  N  N17  4  0.34742093  0.32794947  0.71673225  1
  N  N18  4  0.35657765  0.33883692  0.02895440  1
  N  N19  4  0.35701351  0.29842737  0.35441842  1
  N  N20  4  0.36724242  0.29523743  0.61182358  1
  N  N21  4  0.43829839  0.08568908  -0.05350702  1
  N  N22  4  0.46322490  0.30275908  0.07428734  1
  N  N23  4  0.47261279  0.84531945  1.02226161  1
  O  O24  4  -0.04087911  0.25457409  0.64407515  1
  O  O25  4  0.02553162  0.40627392  0.62536973  1
  O  O26  4  0.04142411  0.08848362  0.45167168  1
  O  O27  4  0.19279391  0.26994121  0.26513021  1
  O  O28  4  0.20059990  0.41257709  0.33714452  1
  O  O29  4  0.20828580  0.06087658  0.31169673  1
  O  O30  4  0.26403432  0.28180520  0.01963946  1
  O  O31  4  0.33255208  0.06085736  0.01170380  1
  O  O32  4  0.33672845  0.41513552  0.72902907  1
  O  O33  4  0.35179264  0.26580667  0.78078690  1
  O  O34  4  0.36616599  0.42508683  0.00645582  1
  O  O35  4  0.47802116  0.94478149  0.35831034  1
