###############################################################################################
#
# CIF file generated by modified CIFWriter class 
# in pymatgen (v2025.03.10) https://pymatgen.org/
#
###############################################################################################
data_PBE+MBD_tight_a704035ebb9fa9f
_symmetry_space_group_name_H-M   P2_1/c
_cell_length_a   30.24583170
_cell_length_b   7.62202042
_cell_length_c   7.72026806
_cell_angle_alpha   90.00000000
_cell_angle_beta   89.65326930
_cell_angle_gamma   90.00000000
_symmetry_Int_Tables_number   14
_chemical_formula_moiety   'C6 H6 N12 O12'
_chemical_formula_sum   'H24 C24 N48 O48'
_cell_volume   1779.75436639
_cell_formula_units_Z   4
loop_
 _symmetry_equiv_pos_site_id
 _symmetry_equiv_pos_as_xyz
  1  'x, y, z'
  2  '-x, -y, -z'
  3  '-x+1/2, y+1/2, -z'
  4  'x+1/2, -y+1/2, z'
loop_
 _atom_site_type_symbol
 _atom_site_label
 _atom_site_symmetry_multiplicity
 _atom_site_fract_x
 _atom_site_fract_y
 _atom_site_fract_z
 _atom_site_occupancy
  H  H0  4  0.03073265  0.51250701  0.48640959  1
  H  H1  4  0.06379953  0.38984082  0.23098051  1
  H  H2  4  0.12940458  0.89387753  0.49874997  1
  H  H3  4  0.13635856  0.24297122  0.65417985  1
  H  H4  4  0.16420604  0.76333125  0.24799381  1
  H  H5  4  0.19324891  0.46132713  0.65869006  1
  C  C6  4  0.06646309  0.52784745  0.48683454  1
  C  C7  4  0.08833907  0.44367716  0.31978775  1
  C  C8  4  0.12453194  0.75198297  0.49370291  1
  C  C9  4  0.12722059  0.35707134  0.57639849  1
  C  C10  4  0.14734066  0.66613685  0.32924859  1
  C  C11  4  0.16525706  0.50346116  0.58002741  1
  N  N12  4  0.04772690  0.83234751  0.56729989  1
  N  N13  4  0.05742502  0.33108456  0.74380379  1
  N  N14  4  0.07783018  0.71163298  0.48792048  1
  N  N15  4  0.08582146  0.43361667  0.63343066  1
  N  N16  4  0.09581325  0.65939250  0.08428707  1
  N  N17  4  0.11533850  0.57078985  0.22639543  1
  N  N18  4  0.11542823  0.30837323  0.39862103  1
  N  N19  4  0.14189079  0.20004035  0.29658036  1
  N  N20  4  0.14649565  0.66874624  0.64125542  1
  N  N21  4  0.17455234  0.78105152  0.74588706  1
  N  N22  4  0.17861533  0.54061921  0.40151546  1
  N  N23  4  0.22507605  0.56524463  0.36661055  1
  O  O24  4  0.01207333  0.77353630  0.61415621  1
  O  O25  4  0.01795418  0.36437930  0.73564958  1
  O  O26  4  0.06025612  0.98431290  0.57289949  1
  O  O27  4  0.06385501  0.58825299  0.01836646  1
  O  O28  4  0.07601822  0.22977967  0.84047439  1
  O  O29  4  0.11372012  0.79597762  0.03886484  1
  O  O30  4  0.13358211  0.19622513  0.14206782  1
  O  O31  4  0.16473997  0.93566333  0.74731955  1
  O  O32  4  0.17003690  0.11475496  0.37509028  1
  O  O33  4  0.20318795  0.70605632  0.82825087  1
  O  O34  4  0.23442654  0.65920069  0.24418650  1
  O  O35  4  0.24974651  0.48111591  0.45955556  1
