###############################################################################################
#
# CIF file generated by modified CIFWriter class 
# in pymatgen (v2025.03.10) https://pymatgen.org/
#
###############################################################################################
data_PBE+MBD_tight_ab8755cb0f9aafc
_symmetry_space_group_name_H-M   P2_1/c
_cell_length_a   7.97965988
_cell_length_b   13.72417886
_cell_length_c   13.90361731
_cell_angle_alpha   90.00000000
_cell_angle_beta   95.62847356
_cell_angle_gamma   90.00000000
_symmetry_Int_Tables_number   14
_chemical_formula_moiety   'C6 H6 N12 O12'
_chemical_formula_sum   'H24 C24 N48 O48'
_cell_volume   1515.30363189
_cell_formula_units_Z   4
loop_
 _symmetry_equiv_pos_site_id
 _symmetry_equiv_pos_as_xyz
  1  'x, y, z'
  2  '-x, -y, -z'
  3  '-x, y+1/2, -z+1/2'
  4  'x, -y+1/2, z+1/2'
loop_
 _atom_site_type_symbol
 _atom_site_label
 _atom_site_symmetry_multiplicity
 _atom_site_fract_x
 _atom_site_fract_y
 _atom_site_fract_z
 _atom_site_occupancy
  H  H0  4  0.03576882  0.21782076  0.32372188  1
  H  H1  4  0.14605227  0.13724246  0.05843616  1
  H  H2  4  0.29453389  0.54266012  0.88212296  1
  H  H3  4  0.29748224  -0.01350864  0.08948101  1
  H  H4  4  0.29751296  0.20265973  0.79940852  1
  H  H5  4  0.44473540  0.53493070  0.15127820  1
  C  C6  4  0.12346718  0.16833394  0.29273623  1
  C  C7  4  0.19179359  0.12977821  0.13478543  1
  C  C8  4  0.27556339  0.48625982  0.82662828  1
  C  C9  4  0.29206019  0.47072198  0.65544799  1
  C  C10  4  0.29550798  0.27860001  0.77568318  1
  C  C11  4  0.44501047  0.43404733  0.80656331  1
  N  N12  4  -0.10564368  0.33317088  0.65685036  1
  N  N13  4  0.05636949  0.13423561  0.19694395  1
  N  N14  4  0.08279029  -0.08553293  0.21623681  1
  N  N15  4  0.13918491  0.09696510  0.45545560  1
  N  N16  4  0.15325294  0.08431445  0.35521216  1
  N  N17  4  0.22342777  -0.02669740  0.23203111  1
  N  N18  4  0.29140707  0.21339644  0.17079555  1
  N  N19  4  0.39821361  0.26237377  0.11549644  1
  N  N20  4  0.40020155  0.49936480  0.32625723  1
  N  N21  4  0.42008017  0.71765965  0.13039589  1
  N  N22  4  0.43069128  0.16781504  0.32893969  1
  N  N23  4  0.45808605  0.44849077  0.70243364  1
  O  O24  4  -0.19889250  0.19696623  0.21484341  1
  O  O25  4  -0.13732654  0.15545028  0.07010059  1
  O  O26  4  0.02878748  0.59944611  0.63148342  1
  O  O27  4  0.02883073  0.61995733  0.78867684  1
  O  O28  4  0.06497085  0.16989875  0.47841377  1
  O  O29  4  0.19938585  0.46785294  1.00870978  1
  O  O30  4  0.28123896  1.00998179  0.76436852  1
  O  O31  4  0.31111782  0.83400310  0.59002317  1
  O  O32  4  0.40101771  0.26689139  0.53208697  1
  O  O33  4  0.40859900  0.47444553  0.41064499  1
  O  O34  4  0.42156531  0.69402640  0.63769342  1
  O  O35  4  0.47688625  0.33126471  0.15394994  1
