###############################################################################################
#
# CIF file generated by modified CIFWriter class 
# in pymatgen (v2025.03.10) https://pymatgen.org/
#
###############################################################################################
data_PBE+MBD_tight_aee7836ca3af69d
_symmetry_space_group_name_H-M   Pmn2_1
_cell_length_a   25.96623547
_cell_length_b   7.48659125
_cell_length_c   13.64367454
_cell_angle_alpha   90.00000000
_cell_angle_beta   90.00000000
_cell_angle_gamma   90.00000000
_symmetry_Int_Tables_number   31
_chemical_formula_moiety   'C6 H6 N12 O12'
_chemical_formula_sum   'H24 C24 N48 O48'
_cell_volume   2652.31110902
_cell_formula_units_Z   4
loop_
 _symmetry_equiv_pos_site_id
 _symmetry_equiv_pos_as_xyz
  1  'x, y, z'
  2  '-x+1/2, -y, z+1/2'
  3  '-x, y, z'
  4  'x+1/2, -y, z+1/2'
loop_
 _atom_site_type_symbol
 _atom_site_label
 _atom_site_symmetry_multiplicity
 _atom_site_fract_x
 _atom_site_fract_y
 _atom_site_fract_z
 _atom_site_occupancy
  H  H0  4  0.13818620  0.51928135  0.65392859  1
  H  H1  4  0.15645490  0.48738806  0.94658258  1
  H  H2  4  0.19271520  0.71104267  0.22788591  1
  H  H3  4  0.20816938  0.72035791  0.69297123  1
  H  H4  4  0.21532836  0.24342315  0.96505476  1
  H  H5  4  0.23750604  0.08911216  0.67922098  1
  C  C6  4  0.16572932  0.46073887  0.70545107  1
  C  C7  4  0.17618135  0.45818392  0.87767962  1
  C  C8  4  0.21113847  0.59350583  0.73199310  1
  C  C9  4  0.21533602  0.29355683  0.88979943  1
  C  C10  4  0.22403960  0.20467667  0.72100175  1
  C  C11  4  0.23069377  0.66384588  0.25096969  1
  N  N12  4  0.08842943  0.50389442  0.81192364  1
  N  N13  4  0.13999132  0.42093166  0.79961662  1
  N  N14  4  0.16230893  0.04320285  0.82932907  1
  N  N15  4  0.16381758  0.22093202  0.57913604  1
  N  N16  4  0.18715179  0.30160413  0.66357045  1
  N  N17  4  0.18942260  0.69283182  0.41617344  1
  N  N18  4  0.20124245  0.39774264  0.15842812  1
  N  N19  4  0.20248726  0.61536454  0.83802949  1
  N  N20  4  0.20503012  0.15282702  0.81844394  1
  N  N21  4  0.23388479  0.65166245  0.35788310  1
  N  N22  4  0.23757815  0.70616825  0.89572079  1
  N  N23  4  0.24044142  0.49047044  0.20885633  1
  O  O24  4  0.06489888  0.52870562  0.73632333  1
  O  O25  4  0.07481219  0.52722064  0.89601289  1
  O  O26  4  0.13116345  0.31088681  0.53801388  1
  O  O27  4  0.14215505  0.04200549  0.91061098  1
  O  O28  4  0.14883278  0.70430499  0.37217921  1
  O  O29  4  0.15023402  -0.04606275  0.75715510  1
  O  O30  4  0.16175862  0.48148172  0.14196966  1
  O  O31  4  0.18027997  0.07472565  0.55616622  1
  O  O32  4  0.19713915  0.70089768  0.50432018  1
  O  O33  4  0.21119213  0.24429048  0.13346200  1
  O  O34  4  0.23439177  0.18597317  0.35390500  1
  O  O35  4  0.23618026  0.67229212  0.98413490  1
