###############################################################################################
#
# CIF file generated by modified CIFWriter class 
# in pymatgen (v2025.03.10) https://pymatgen.org/
#
###############################################################################################
data_PBE+MBD_tight_b317c8bd3fd8b24
_symmetry_space_group_name_H-M   P2_1/c
_cell_length_a   8.17443938
_cell_length_b   13.64132985
_cell_length_c   15.50659193
_cell_angle_alpha   90.00000000
_cell_angle_beta   68.82933487
_cell_angle_gamma   90.00000000
_symmetry_Int_Tables_number   14
_chemical_formula_moiety   'C6 H6 N12 O12'
_chemical_formula_sum   'H24 C24 N48 O48'
_cell_volume   1612.44161340
_cell_formula_units_Z   4
loop_
 _symmetry_equiv_pos_site_id
 _symmetry_equiv_pos_as_xyz
  1  'x, y, z'
  2  '-x, -y, -z'
  3  '-x, y+1/2, -z+1/2'
  4  'x, -y+1/2, z+1/2'
loop_
 _atom_site_type_symbol
 _atom_site_label
 _atom_site_symmetry_multiplicity
 _atom_site_fract_x
 _atom_site_fract_y
 _atom_site_fract_z
 _atom_site_occupancy
  H  H0  4  0.01826946  0.46058558  0.92026293  1
  H  H1  4  0.08071737  0.52027385  0.65533536  1
  H  H2  4  0.12655814  0.20457472  0.40960965  1
  H  H3  4  0.26575802  0.23458467  0.63384833  1
  H  H4  4  0.33953849  0.57885496  0.68028515  1
  H  H5  4  0.47313296  0.70775722  0.34296583  1
  C  C6  4  0.09801295  0.05858349  0.34909999  1
  C  C7  4  0.13027977  0.03267772  0.19293410  1
  C  C8  4  0.17070077  0.16904097  0.34177290  1
  C  C9  4  0.24103890  0.20159850  0.17947955  1
  C  C10  4  0.30079012  0.50563428  0.70911194  1
  C  C11  4  0.41132782  0.16400917  0.19501996  1
  N  N12  4  -0.14938493  -0.01618534  0.31620332  1
  N  N13  4  -0.03315666  0.22940624  0.79464763  1
  N  N14  4  0.00081416  0.45183135  0.78693241  1
  N  N15  4  0.09568372  0.14285876  0.07378185  1
  N  N16  4  0.12658841  0.27432142  0.77420963  1
  N  N17  4  0.17395638  0.12219613  0.14068989  1
  N  N18  4  0.24816849  -0.00575317  0.30936710  1
  N  N19  4  0.27157274  0.59026020  0.85573603  1
  N  N20  4  0.36027699  0.32481683  0.79491890  1
  N  N21  4  0.42247895  0.96269062  0.91587418  1
  N  N22  4  0.44482043  0.43822076  0.66903964  1
  N  N23  4  0.47552995  0.14878584  0.33878771  1
  O  O24  4  -0.22148630  0.52788153  0.89916883  1
  O  O25  4  -0.19377096  -0.04856506  0.25442427  1
  O  O26  4  -0.12909546  0.27465702  0.37613270  1
  O  O27  4  -0.06153746  0.30541438  0.22780232  1
  O  O28  4  0.00558091  0.42168768  0.56018333  1
  O  O29  4  0.13443159  0.22210842  0.03495194  1
  O  O30  4  0.17848755  -0.09838086  0.43719789  1
  O  O31  4  0.33107702  0.60431159  0.45952293  1
  O  O32  4  0.36911843  0.85426616  0.71122493  1
  O  O33  4  0.38974384  0.64487760  0.80975301  1
  O  O34  4  0.41011656  0.36656367  0.92206198  1
  O  O35  4  0.41097820  1.04997758  0.93680192  1
