###############################################################################################
#
# CIF file generated by modified CIFWriter class 
# in pymatgen (v2025.03.10) https://pymatgen.org/
#
###############################################################################################
data_PBE+MBD_tight_b6c0dfc6df6355
_symmetry_space_group_name_H-M   P2_1/c
_cell_length_a   12.39559257
_cell_length_b   13.94470031
_cell_length_c   9.76804206
_cell_angle_alpha   90.00000000
_cell_angle_beta   83.25635529
_cell_angle_gamma   90.00000000
_symmetry_Int_Tables_number   14
_chemical_formula_moiety   'C6 H6 N12 O12'
_chemical_formula_sum   'H24 C24 N48 O48'
_cell_volume   1676.75220347
_cell_formula_units_Z   4
loop_
 _symmetry_equiv_pos_site_id
 _symmetry_equiv_pos_as_xyz
  1  'x, y, z'
  2  '-x, -y, -z'
  3  '-x, y+1/2, -z+1/2'
  4  'x, -y+1/2, z+1/2'
loop_
 _atom_site_type_symbol
 _atom_site_label
 _atom_site_symmetry_multiplicity
 _atom_site_fract_x
 _atom_site_fract_y
 _atom_site_fract_z
 _atom_site_occupancy
  H  H0  4  0.06822802  0.02926093  0.92741396  1
  H  H1  4  0.08408432  0.58466597  0.23891181  1
  H  H2  4  0.28852566  0.20845783  0.70096802  1
  H  H3  4  0.30527243  0.09426115  0.51389784  1
  H  H4  4  0.34821090  -0.11540757  0.94060224  1
  H  H5  4  0.47730679  -0.01353037  0.81290711  1
  C  C6  4  0.14968623  0.47175345  0.37156061  1
  C  C7  4  0.16010276  -0.04642956  0.74796480  1
  C  C8  4  0.27946047  0.36551925  0.23750160  1
  C  C9  4  0.29047703  0.44035213  0.11472364  1
  C  C10  4  0.30804485  -0.06487812  0.87778817  1
  C  C11  4  0.39490240  0.00376542  0.79189689  1
  N  N12  4  0.11023320  0.20266975  0.86210061  1
  N  N13  4  0.14670382  0.51930137  -0.00161221  1
  N  N14  4  0.17550148  0.37802382  0.31709911  1
  N  N15  4  0.18727168  -0.04320661  1.09526087  1
  N  N16  4  0.19265542  0.00418039  0.62234420  1
  N  N17  4  0.20332558  0.70974651  0.32703612  1
  N  N18  4  0.22941137  0.50454027  0.46171292  1
  N  N19  4  0.24422926  -0.11413393  0.78236449  1
  N  N20  4  0.36994708  0.10523320  0.81405635  1
  N  N21  4  0.38326348  0.35233244  0.43913995  1
  N  N22  4  0.38491570  0.49712533  0.14553085  1
  N  N23  4  0.41857088  0.57709743  0.06683548  1
  O  O24  4  0.03499450  0.31306380  0.45173649  1
  O  O25  4  0.07654266  -0.08085766  0.50969394  1
  O  O26  4  0.09548275  -0.01806938  1.13975593  1
  O  O27  4  0.12313757  -0.23626070  0.77732327  1
  O  O28  4  0.13508257  0.22174725  0.30419927  1
  O  O29  4  0.18084297  0.02756297  0.39759418  1
  O  O30  4  0.25014999  -0.09212830  1.15159178  1
  O  O31  4  0.25766936  0.75297417  0.40266915  1
  O  O32  4  0.33421132  0.22332600  0.96490573  1
  O  O33  4  0.38938506  -0.08022076  0.45135827  1
  O  O34  4  0.44423653  0.39334677  0.51056649  1
  O  O35  4  0.47728739  0.63411915  0.11927925  1
