###############################################################################################
#
# CIF file generated by modified CIFWriter class 
# in pymatgen (v2025.03.10) https://pymatgen.org/
#
###############################################################################################
data_PBE+MBD_tight_b80560c85b404a3
_symmetry_space_group_name_H-M   P2_1/c
_cell_length_a   10.19661168
_cell_length_b   11.15242497
_cell_length_c   14.31219548
_cell_angle_alpha   90.00000000
_cell_angle_beta   87.04031075
_cell_angle_gamma   90.00000000
_symmetry_Int_Tables_number   14
_chemical_formula_moiety   'C6 H6 N12 O12'
_chemical_formula_sum   'H24 C24 N48 O48'
_cell_volume   1625.36821086
_cell_formula_units_Z   4
loop_
 _symmetry_equiv_pos_site_id
 _symmetry_equiv_pos_as_xyz
  1  'x, y, z'
  2  '-x, -y, -z'
  3  '-x, y+1/2, -z+1/2'
  4  'x, -y+1/2, z+1/2'
loop_
 _atom_site_type_symbol
 _atom_site_label
 _atom_site_symmetry_multiplicity
 _atom_site_fract_x
 _atom_site_fract_y
 _atom_site_fract_z
 _atom_site_occupancy
  H  H0  4  -0.03338519  0.72197937  0.06838712  1
  H  H1  4  0.09211083  0.53800835  0.07776477  1
  H  H2  4  0.21962818  0.72355004  0.77090740  1
  H  H3  4  0.28689262  0.88412619  -0.07531946  1
  H  H4  4  0.40289238  0.63265648  0.68963118  1
  H  H5  4  0.41520386  0.79867018  0.43959322  1
  C  C6  4  0.07182159  0.73808603  0.07346098  1
  C  C7  4  0.15353552  0.88207621  0.58142935  1
  C  C8  4  0.21622127  0.76073244  0.19596945  1
  C  C9  4  0.26063539  0.66558692  0.48892856  1
  C  C10  4  0.33902972  0.67733708  0.64138062  1
  C  C11  4  0.34373692  0.71510406  -0.00169154  1
  N  N12  4  -0.01525560  0.68258565  0.72652397  1
  N  N13  4  0.03495892  0.62755867  0.44052149  1
  N  N14  4  0.09504682  0.69536375  0.66005241  1
  N  N15  4  0.12307597  0.69879508  0.49134969  1
  N  N16  4  0.20567784  0.86697735  0.67359387  1
  N  N17  4  0.23339573  0.95581637  0.42721132  1
  N  N18  4  0.25715299  0.61144749  0.00755706  1
  N  N19  4  0.29142131  0.59518852  0.57138241  1
  N  N20  4  0.29806600  0.94843031  0.70570694  1
  N  N21  4  0.35746126  1.01669523  0.05832295  1
  N  N22  4  0.40777430  0.76829692  0.58522367  1
  N  N23  4  0.45445208  0.28768392  0.90999294  1
  O  O24  4  -0.12324501  0.81107354  0.19507332  1
  O  O25  4  -0.08145814  0.63666809  0.46358283  1
  O  O26  4  0.01235646  0.84022674  0.30703980  1
  O  O27  4  0.08499078  0.56794792  0.37639352  1
  O  O28  4  0.14283833  0.47216723  -0.06633158  1
  O  O29  4  0.30292718  0.45368985  0.16791587  1
  O  O30  4  0.30765943  0.93788070  0.35837777  1
  O  O31  4  0.35882128  0.44108324  0.47924159  1
  O  O32  4  0.36246265  0.91196754  0.77030930  1
  O  O33  4  0.40123850  0.43904906  0.62803960  1
  O  O34  4  0.40331888  0.15672497  0.47590130  1
  O  O35  4  0.40578674  0.25174785  0.83954865  1
