###############################################################################################
#
# CIF file generated by modified CIFWriter class 
# in pymatgen (v2025.03.10) https://pymatgen.org/
#
###############################################################################################
data_PBE+MBD_tight_bbbeaf3db18ae5
_symmetry_space_group_name_H-M   P-1
_cell_length_a   14.28104444
_cell_length_b   13.92286178
_cell_length_c   8.53348847
_cell_angle_alpha   92.84441255
_cell_angle_beta   97.37017403
_cell_angle_gamma   82.34718304
_symmetry_Int_Tables_number   2
_chemical_formula_moiety   'C6 H6 N12 O12'
_chemical_formula_sum   'H24 C24 N48 O48'
_cell_volume   1666.81896204
_cell_formula_units_Z   4
loop_
 _symmetry_equiv_pos_site_id
 _symmetry_equiv_pos_as_xyz
  1  'x, y, z'
  2  '-x, -y, -z'
loop_
 _atom_site_type_symbol
 _atom_site_label
 _atom_site_symmetry_multiplicity
 _atom_site_fract_x
 _atom_site_fract_y
 _atom_site_fract_z
 _atom_site_occupancy
  H  H0  2  0.10775488  0.41261666  0.13294412  1
  H  H1  2  0.12586767  0.83515667  0.13884978  1
  H  H2  2  0.13138531  0.44342724  0.41716481  1
  H  H3  2  0.15417550  0.80731924  -0.13610763  1
  H  H4  2  0.16723136  0.11667828  0.20416172  1
  H  H5  2  0.19254438  0.14753204  0.48754401  1
  H  H6  2  0.24873723  0.55896439  0.09094840  1
  H  H7  2  0.39653538  0.37332337  0.27462846  1
  H  H8  2  0.41303471  0.86275977  0.26431297  1
  H  H9  2  0.41667300  0.57278868  0.15805213  1
  H  H10  2  0.42814742  0.20292469  0.31097660  1
  H  H11  2  0.43898553  0.83743781  -0.01219420  1
  C  C12  2  0.16233901  0.35993020  0.19326223  1
  C  C13  2  0.17742918  0.37971855  0.37929609  1
  C  C14  2  0.19685987  0.79721537  0.12629768  1
  C  C15  2  0.19772296  0.18408497  0.23525579  1
  C  C16  2  0.21328155  0.20483522  0.42094339  1
  C  C17  2  0.21545286  0.77887413  -0.05343377  1
  C  C18  2  0.26346073  0.63346432  0.08375198  1
  C  C19  2  0.33028181  0.34392915  0.28344079  1
  C  C20  2  0.35241350  0.22899214  0.30982418  1
  C  C21  2  0.36679159  0.81374573  0.19966231  1
  C  C22  2  0.37488301  0.64297502  0.13108299  1
  C  C23  2  0.38420699  0.79664245  0.01982173  1
  N  N24  2  0.05370065  0.24801345  0.05965880  1
  N  N25  2  0.10420093  0.30546556  0.58755092  1
  N  N26  2  0.13553086  0.26383723  0.16174445  1
  N  N27  2  0.14527410  0.66993349  0.27986490  1
  N  N28  2  0.15621430  0.62682291  -0.16529972  1
  N  N29  2  0.15841683  0.29567227  0.45520201  1
  N  N30  2  0.20894250  0.69965666  0.18475388  1
  N  N31  2  0.23336204  0.67169955  -0.07363098  1
  N  N32  2  0.24347606  0.93594637  0.29747338  1
  N  N33  2  0.25769254  0.36834579  0.14951782  1
  N  N34  2  0.26852190  0.85247012  0.20640311  1
  N  N35  2  0.27828856  0.39502508  0.40349317  1
  N  N36  2  0.27842828  0.33796625  -0.00347936  1
  N  N37  2  0.29302320  0.17993045  0.18796032  1
  N  N38  2  0.29415402  0.88056960  -0.21606721  1
  N  N39  2  0.29631818  0.82377726  -0.07896373  1
  N  N40  2  0.31580204  0.20956654  0.45442269  1
  N  N41  2  0.32532230  0.41303389  0.55349831  1
  N  N42  2  0.33183067  0.09770052  0.10244486  1
  N  N43  2  0.36641450  0.69547529  0.40734092  1
  N  N44  2  0.37192483  0.15075903  0.57155728  1
  N  N45  2  0.38997435  0.71454495  0.25901697  1
  N  N46  2  0.41409323  0.69167790  0.01373647  1
  N  N47  2  0.44000539  0.64339712  -0.12216418  1
  O  O48  2  0.00662866  0.31964182  -0.00129979  1
  O  O49  2  0.03540887  0.16414351  0.04375714  1
  O  O50  2  0.06485689  0.38634441  0.61443198  1
  O  O51  2  0.09997626  0.73486516  0.34979851  1
  O  O52  2  0.10220475  0.23058631  0.65429449  1
  O  O53  2  0.11096244  0.67502758  -0.27188869  1
  O  O54  2  0.14543125  0.58217581  0.28645439  1
  O  O55  2  0.14779868  0.54495340  -0.13107010  1
  O  O56  2  0.15809708  0.96213929  0.29838500  1
  O  O57  2  0.20996495  0.33167654  -0.10280551  1
  O  O58  2  0.21726990  0.89394212  -0.29784304  1
  O  O59  2  0.27377037  0.04795308  0.03302732  1
  O  O60  2  0.27470524  0.44785249  0.65246723  1
  O  O61  2  0.30913451  0.97737668  0.36357901  1
  O  O62  2  0.32974956  0.12547634  0.67457791  1
  O  O63  2  0.35442639  0.76575642  0.49758697  1
  O  O64  2  0.36145396  0.61015347  0.43133039  1
  O  O65  2  0.36321131  0.32374142  -0.02103785  1
  O  O66  2  0.36813044  0.91052616  -0.23249998  1
  O  O67  2  0.41237263  0.39349196  0.56858055  1
  O  O68  2  0.41792606  0.08693561  0.10110234  1
  O  O69  2  0.44208007  0.55492332  -0.12769958  1
  O  O70  2  0.45751387  0.13639366  0.56081476  1
  O  O71  2  0.46075861  0.69443588  -0.22261038  1
