###############################################################################################
#
# CIF file generated by modified CIFWriter class 
# in pymatgen (v2025.03.10) https://pymatgen.org/
#
###############################################################################################
data_PBE+MBD_tight_bcd7108b4ca39ca
_symmetry_space_group_name_H-M   P2_1/c
_cell_length_a   13.85815024
_cell_length_b   13.31023761
_cell_length_c   8.90987717
_cell_angle_alpha   90.00000000
_cell_angle_beta   97.08583310
_cell_angle_gamma   90.00000000
_symmetry_Int_Tables_number   14
_chemical_formula_moiety   'C6 H6 N12 O12'
_chemical_formula_sum   'H24 C24 N48 O48'
_cell_volume   1630.92174039
_cell_formula_units_Z   4
loop_
 _symmetry_equiv_pos_site_id
 _symmetry_equiv_pos_as_xyz
  1  'x, y, z'
  2  '-x, -y, -z'
  3  '-x, y+1/2, -z+1/2'
  4  'x, -y+1/2, z+1/2'
loop_
 _atom_site_type_symbol
 _atom_site_label
 _atom_site_symmetry_multiplicity
 _atom_site_fract_x
 _atom_site_fract_y
 _atom_site_fract_z
 _atom_site_occupancy
  H  H0  4  0.12845992  -0.13358064  0.84852904  1
  H  H1  4  0.15245582  0.15646724  0.72674517  1
  H  H2  4  0.21604828  0.63041387  0.13053807  1
  H  H3  4  0.29502968  0.29009103  0.37987182  1
  H  H4  4  0.37713434  0.54378037  0.62417702  1
  H  H5  4  0.46541623  0.54467935  0.40182564  1
  C  C6  4  0.18449891  0.57520017  0.35669364  1
  C  C7  4  0.19577721  0.40816440  0.27023144  1
  C  C8  4  0.24211540  -0.07291208  0.71350904  1
  C  C9  4  0.29164311  0.12793037  0.87363242  1
  C  C10  4  0.33230710  0.52195321  0.51931109  1
  C  C11  4  0.38976268  0.52105311  0.37567587  1
  N  N12  4  0.03639930  0.03359519  0.83389888  1
  N  N13  4  0.14113235  0.02511135  0.85892459  1
  N  N14  4  0.14848345  0.02724475  0.51292896  1
  N  N15  4  0.22255867  0.47212985  0.14783517  1
  N  N16  4  0.23088094  0.66008680  0.60292053  1
  N  N17  4  0.24864604  0.38157349  0.63530297  1
  N  N18  4  0.25201821  -0.09092627  0.99098220  1
  N  N19  4  0.30167074  0.41676096  0.52342639  1
  N  N20  4  0.34353540  0.58850656  0.26345105  1
  N  N21  4  0.38124461  0.08546115  0.82995633  1
  N  N22  4  0.40269467  0.64371991  0.17122006  1
  N  N23  4  0.41681791  0.11740176  0.69731057  1
  O  O24  4  -0.00902553  0.54349181  0.35037171  1
  O  O25  4  0.00525874  0.11790072  0.80735785  1
  O  O26  4  0.10374003  0.10516965  0.48743771  1
  O  O27  4  0.14340859  -0.04980706  0.43931456  1
  O  O28  4  0.15955427  0.71336664  0.56926452  1
  O  O29  4  0.19900355  0.19351520  1.10360983  1
  O  O30  4  0.25988489  0.42802284  0.75477479  1
  O  O31  4  0.28750997  -0.16220403  1.21936437  1
  O  O32  4  0.36126743  0.67663729  0.05287015  1
  O  O33  4  0.37988724  0.30696518  0.13746023  1
  O  O34  4  0.48390050  0.06728544  0.65883271  1
  O  O35  4  0.48758878  -0.15491495  0.72371438  1
