###############################################################################################
#
# CIF file generated by modified CIFWriter class 
# in pymatgen (v2025.03.10) https://pymatgen.org/
#
###############################################################################################
data_PBE+MBD_tight_bdf5a215e75f572
_symmetry_space_group_name_H-M   P222_1
_cell_length_a   8.05734450
_cell_length_b   8.20263561
_cell_length_c   28.47844253
_cell_angle_alpha   90.00000000
_cell_angle_beta   90.00000000
_cell_angle_gamma   90.00000000
_symmetry_Int_Tables_number   17
_chemical_formula_moiety   'C6 H6 N12 O12'
_chemical_formula_sum   'H24 C24 N48 O48'
_cell_volume   1882.18187124
_cell_formula_units_Z   4
loop_
 _symmetry_equiv_pos_site_id
 _symmetry_equiv_pos_as_xyz
  1  'x, y, z'
  2  '-x, -y, z+1/2'
  3  'x, -y, -z'
  4  '-x, y, -z+1/2'
loop_
 _atom_site_type_symbol
 _atom_site_label
 _atom_site_symmetry_multiplicity
 _atom_site_fract_x
 _atom_site_fract_y
 _atom_site_fract_z
 _atom_site_occupancy
  H  H0  4  -0.15518465  0.44219371  0.64393046  1
  H  H1  4  0.00613176  -0.01904910  0.68306550  1
  H  H2  4  0.03482490  0.25353898  0.52214738  1
  H  H3  4  0.12897649  0.46739624  0.36135972  1
  H  H4  4  0.13397380  -0.00843148  0.54595333  1
  H  H5  4  0.29296774  0.07341896  0.67746599  1
  C  C6  4  -0.07190028  0.34537233  0.63215652  1
  C  C7  4  0.02460716  0.07143886  0.65537558  1
  C  C8  4  0.04748802  0.24721313  0.56030315  1
  C  C9  4  0.11280920  0.07119372  0.57603571  1
  C  C10  4  0.11437106  0.40493722  0.62871028  1
  C  C11  4  0.21155166  0.13283272  0.65192363  1
  N  N12  4  -0.25502882  0.21878000  0.57213366  1
  N  N13  4  -0.15353539  0.22949466  0.70876210  1
  N  N14  4  -0.10507224  0.29492293  0.58383150  1
  N  N15  4  -0.08641515  0.20666251  0.66344948  1
  N  N16  4  -0.03386459  -0.17134871  0.60642749  1
  N  N17  4  -0.00774797  0.00023256  0.60897363  1
  N  N18  4  0.14882241  0.37868957  0.57858513  1
  N  N19  4  0.21243298  0.30574251  0.65995261  1
  N  N20  4  0.26287883  0.09003428  0.60392787  1
  N  N21  4  0.30688783  0.40719264  0.55959245  1
  N  N22  4  0.35513777  0.37818024  0.68285034  1
  N  N23  4  0.38584158  -0.04076906  0.59900917  1
  O  O24  4  -0.36963643  0.24258459  0.59948082  1
  O  O25  4  -0.25547659  0.14016881  0.53561350  1
  O  O26  4  -0.19275386  0.36863488  0.71928286  1
  O  O27  4  -0.16751949  0.10646446  0.73296302  1
  O  O28  4  -0.07954352  -0.23850819  0.64265333  1
  O  O29  4  -0.01466899  -0.23450469  0.56786753  1
  O  O30  4  0.33737035  0.33646741  0.52270642  1
  O  O31  4  0.35215829  0.47425182  0.31330947  1
  O  O32  4  0.39318403  -0.10296780  0.56033866  1
  O  O33  4  0.39392347  0.49715194  0.41863729  1
  O  O34  4  0.45821717  0.28222281  0.69722825  1
  O  O35  4  0.47217949  -0.06633795  0.63332181  1
