###############################################################################################
#
# CIF file generated by modified CIFWriter class 
# in pymatgen (v2025.03.10) https://pymatgen.org/
#
###############################################################################################
data_PBE+MBD_tight_bee46e93af96fde
_symmetry_space_group_name_H-M   C2
_cell_length_a   13.83530180
_cell_length_b   8.11341897
_cell_length_c   14.60848929
_cell_angle_alpha   90.00000000
_cell_angle_beta   88.66523042
_cell_angle_gamma   90.00000000
_symmetry_Int_Tables_number   5
_chemical_formula_moiety   'C6 H6 N12 O12'
_chemical_formula_sum   'H24 C24 N48 O48'
_cell_volume   1639.38134347
_cell_formula_units_Z   4
loop_
 _symmetry_equiv_pos_site_id
 _symmetry_equiv_pos_as_xyz
  1  'x, y, z'
  2  '-x, y, -z'
  3  'x+1/2, y+1/2, z'
  4  '-x+1/2, y+1/2, -z'
loop_
 _atom_site_type_symbol
 _atom_site_label
 _atom_site_symmetry_multiplicity
 _atom_site_fract_x
 _atom_site_fract_y
 _atom_site_fract_z
 _atom_site_occupancy
  H  H0  4  -0.01590148  0.51047726  0.23682726  1
  H  H1  4  0.09255391  0.40465791  0.11809438  1
  H  H2  4  0.16601575  0.88169822  0.15126578  1
  H  H3  4  0.18912130  -0.12831652  0.69125227  1
  H  H4  4  0.20514777  0.49216241  0.42555614  1
  H  H5  4  0.21007965  0.36898951  0.73736062  1
  C  C6  4  0.05861917  0.55137602  0.24532837  1
  C  C7  4  0.12971033  0.47986361  0.16860251  1
  C  C8  4  0.16480719  0.76363910  0.18738167  1
  C  C9  4  0.18972832  0.53750517  0.35681964  1
  C  C10  4  0.23957269  -0.03870287  0.71925916  1
  C  C11  4  0.24879775  0.75425984  0.26114821  1
  N  N12  4  0.02971436  0.84057507  0.29201437  1
  N  N13  4  0.04472709  0.36266933  0.37720995  1
  N  N14  4  0.06974260  0.72853814  0.22962263  1
  N  N15  4  0.08966590  0.50330102  0.33581655  1
  N  N16  4  0.12189765  0.10589944  0.82416223  1
  N  N17  4  0.14752893  0.65789702  0.03061251  1
  N  N18  4  0.17399183  0.62571365  0.12453653  1
  N  N19  4  0.19003032  0.10976129  0.75262483  1
  N  N20  4  0.20220720  0.38228060  0.21242515  1
  N  N21  4  0.20559557  0.71438260  0.34915822  1
  N  N22  4  0.22346934  0.81104905  0.42753531  1
  N  N23  4  0.22416326  0.22169654  0.18107021  1
  O  O24  4  -0.03891529  0.79141887  0.33898742  1
  O  O25  4  -0.03394406  0.32379599  0.34752654  1
  O  O26  4  0.06626004  0.97863852  0.29182373  1
  O  O27  4  0.08842943  0.29844761  0.43937027  1
  O  O28  4  0.08884229  -0.02969982  0.84425017  1
  O  O29  4  0.10056716  0.23992914  0.85824236  1
  O  O30  4  0.11954486  0.53921351  -0.01258814  1
  O  O31  4  0.16123876  0.79817601  0.00386365  1
  O  O32  4  0.17427977  0.16843619  0.11958060  1
  O  O33  4  0.19470110  0.75271963  0.50032970  1
  O  O34  4  0.21118405  -0.35025578  0.77956908  1
  O  O35  4  0.23867501  0.44505575  0.58605296  1
