###############################################################################################
#
# CIF file generated by modified CIFWriter class 
# in pymatgen (v2025.03.10) https://pymatgen.org/
#
###############################################################################################
data_PBE+MBD_tight_c0271a812c12a78
_symmetry_space_group_name_H-M   P2_12_12_1
_cell_length_a   8.27834473
_cell_length_b   13.64781886
_cell_length_c   13.77339482
_cell_angle_alpha   90.00000000
_cell_angle_beta   90.00000000
_cell_angle_gamma   90.00000000
_symmetry_Int_Tables_number   19
_chemical_formula_moiety   'C6 H6 N12 O12'
_chemical_formula_sum   'H24 C24 N48 O48'
_cell_volume   1556.13673204
_cell_formula_units_Z   4
loop_
 _symmetry_equiv_pos_site_id
 _symmetry_equiv_pos_as_xyz
  1  'x, y, z'
  2  '-x+1/2, -y, z+1/2'
  3  'x+1/2, -y+1/2, -z'
  4  '-x, y+1/2, -z+1/2'
loop_
 _atom_site_type_symbol
 _atom_site_label
 _atom_site_symmetry_multiplicity
 _atom_site_fract_x
 _atom_site_fract_y
 _atom_site_fract_z
 _atom_site_occupancy
  H  H0  4  -0.03985308  0.33189043  -0.02728888  1
  H  H1  4  -0.00951891  0.63195136  -0.04946181  1
  H  H2  4  -0.00797642  0.53223016  0.28557705  1
  H  H3  4  0.10684368  0.29994999  0.11781516  1
  H  H4  4  0.23859588  -0.09095111  0.96961162  1
  H  H5  4  0.24182562  0.57162801  0.20401327  1
  C  C6  4  -0.15947430  0.54821374  0.05807226  1
  C  C7  4  -0.02613757  0.39866110  0.01582917  1
  C  C8  4  -0.01135303  0.51341581  0.20845197  1
  C  C9  4  0.00488824  0.57379847  0.00456986  1
  C  C10  4  0.07209619  0.37702980  0.11389346  1
  C  C11  4  0.15361703  0.53809399  0.15507739  1
  N  N12  4  -0.17973419  0.44327240  0.03914153  1
  N  N13  4  -0.13863058  0.56628421  0.16062436  1
  N  N14  4  -0.03989975  0.34569064  0.27789999  1
  N  N15  4  -0.02711168  0.40692146  0.19585922  1
  N  N16  4  0.04385460  0.47899895  -0.04021581  1
  N  N17  4  0.12306391  0.60309379  0.07524015  1
  N  N18  4  0.14555769  0.59782413  0.66469037  1
  N  N19  4  0.17464556  0.09681727  0.99294528  1
  N  N20  4  0.18082358  0.46659261  -0.09593707  1
  N  N21  4  0.21164399  0.44226083  0.11955494  1
  N  N22  4  0.22014591  0.68703278  0.06001256  1
  N  N23  4  0.22759201  -0.10002905  0.78341307  1
  O  O24  4  -0.09498769  0.38343242  0.35116345  1
  O  O25  4  -0.00204107  0.25954340  0.26620197  1
  O  O26  4  0.05485103  0.53880070  0.70279190  1
  O  O27  4  0.05888284  0.04122329  0.99686354  1
  O  O28  4  0.11849247  -0.13837724  0.82828907  1
  O  O29  4  0.12565699  0.68577921  0.65531565  1
  O  O30  4  0.17671742  0.18497553  1.01003921  1
  O  O31  4  0.18060051  0.29467805  0.62291780  1
  O  O32  4  0.19205285  0.73401638  -0.01368022  1
  O  O33  4  0.21942349  0.38203139  -0.11560422  1
  O  O34  4  0.23949775  -0.08971714  0.69539051  1
  O  O35  4  0.24804856  0.54226459  -0.12327960  1
