###############################################################################################
#
# CIF file generated by modified CIFWriter class 
# in pymatgen (v2025.03.10) https://pymatgen.org/
#
###############################################################################################
data_PBE+MBD_tight_c1590f58a0f4efb
_symmetry_space_group_name_H-M   P2_1/c
_cell_length_a   9.57433712
_cell_length_b   12.48510320
_cell_length_c   14.18508293
_cell_angle_alpha   90.00000000
_cell_angle_beta   108.00203251
_cell_angle_gamma   90.00000000
_symmetry_Int_Tables_number   14
_chemical_formula_moiety   'C6 H6 N12 O12'
_chemical_formula_sum   'H24 C24 N48 O48'
_cell_volume   1612.62745841
_cell_formula_units_Z   4
loop_
 _symmetry_equiv_pos_site_id
 _symmetry_equiv_pos_as_xyz
  1  'x, y, z'
  2  '-x, -y, -z'
  3  '-x, y+1/2, -z+1/2'
  4  'x, -y+1/2, z+1/2'
loop_
 _atom_site_type_symbol
 _atom_site_label
 _atom_site_symmetry_multiplicity
 _atom_site_fract_x
 _atom_site_fract_y
 _atom_site_fract_z
 _atom_site_occupancy
  H  H0  4  -0.05488149  0.16945087  0.58771381  1
  H  H1  4  0.13147914  0.46627395  0.15632506  1
  H  H2  4  0.19646561  0.22907599  0.36274335  1
  H  H3  4  0.25948224  0.36629396  0.52912036  1
  H  H4  4  0.37293135  0.11766046  0.32606256  1
  H  H5  4  0.44544603  0.23127592  0.59527234  1
  C  C6  4  0.05346582  0.29627261  0.12436497  1
  C  C7  4  0.17546102  0.11507530  0.66848292  1
  C  C8  4  0.20044176  0.24485611  0.28806989  1
  C  C9  4  0.23903813  0.17970094  0.08918265  1
  C  C10  4  0.31989130  0.16992860  0.26354427  1
  C  C11  4  0.36153399  0.23218258  0.63296653  1
  N  N12  4  -0.02442699  0.35729106  0.70964108  1
  N  N13  4  -0.00918703  0.30454841  0.46569945  1
  N  N14  4  0.05635340  0.23667246  0.21454344  1
  N  N15  4  0.09973069  0.23378845  0.05348788  1
  N  N16  4  0.22448492  0.14275877  0.77317645  1
  N  N17  4  0.24766414  0.10929112  0.17360935  1
  N  N18  4  0.27864800  0.43071817  0.03629952  1
  N  N19  4  0.29552353  0.12585456  0.62587329  1
  N  N20  4  0.30334528  0.00177163  0.16839290  1
  N  N21  4  0.33676967  0.41253873  0.34195126  1
  N  N22  4  0.42278344  0.70053747  0.23265623  1
  N  N23  4  0.42523069  0.26142902  0.73665984  1
  O  O24  4  -0.12635140  0.25844194  0.44284040  1
  O  O25  4  -0.12112039  0.37456882  0.63192471  1
  O  O26  4  0.00921921  0.41162063  0.78593867  1
  O  O27  4  0.03094452  0.12393909  -0.07919249  1
  O  O28  4  0.18426853  0.50029514  0.01455649  1
  O  O29  4  0.28749478  -0.03267758  0.08557954  1
  O  O30  4  0.34840423  0.72937794  0.28346118  1
  O  O31  4  0.35344185  -0.04369038  0.24774548  1
  O  O32  4  0.36315450  0.40567843  -0.00984135  1
  O  O33  4  0.36888605  0.49969636  0.31592858  1
  O  O34  4  0.38707145  0.85185055  0.65669543  1
  O  O35  4  0.38936793  0.36801326  0.42253316  1
