###############################################################################################
#
# CIF file generated by modified CIFWriter class 
# in pymatgen (v2025.03.10) https://pymatgen.org/
#
###############################################################################################
data_PBE+MBD_tight_c174bfbddc9a6c4
_symmetry_space_group_name_H-M   Pnc2
_cell_length_a   13.38727305
_cell_length_b   9.39241923
_cell_length_c   13.45531675
_cell_angle_alpha   90.00000000
_cell_angle_beta   90.00000000
_cell_angle_gamma   90.00000000
_symmetry_Int_Tables_number   30
_chemical_formula_moiety   'C6 H6 N12 O12'
_chemical_formula_sum   'H24 C24 N48 O48'
_cell_volume   1691.85646915
_cell_formula_units_Z   4
loop_
 _symmetry_equiv_pos_site_id
 _symmetry_equiv_pos_as_xyz
  1  'x, y, z'
  2  '-x, -y, z'
  3  '-x, y+1/2, z+1/2'
  4  'x, -y+1/2, z+1/2'
loop_
 _atom_site_type_symbol
 _atom_site_label
 _atom_site_symmetry_multiplicity
 _atom_site_fract_x
 _atom_site_fract_y
 _atom_site_fract_z
 _atom_site_occupancy
  H  H0  4  0.09696512  0.54027435  0.64733106  1
  H  H1  4  0.11178014  0.71235053  0.19662266  1
  H  H2  4  0.22359977  0.54717915  0.91894115  1
  H  H3  4  0.39649655  0.54154346  0.88130099  1
  H  H4  4  0.39704744  0.53060733  0.57514657  1
  H  H5  4  0.41334793  0.72166425  0.12498501  1
  C  C6  4  0.17002652  0.56417426  0.67930024  1
  C  C7  4  0.17966630  0.72649190  0.71160270  1
  C  C8  4  0.23695821  0.57776394  0.84187076  1
  C  C9  4  0.34799554  0.55851013  0.63710241  1
  C  C10  4  0.35381807  0.57370422  0.81584829  1
  C  C11  4  0.35798664  0.72068086  0.66909028  1
  N  N12  4  0.10220390  0.40425781  0.81102397  1
  N  N13  4  0.12947316  0.71373256  0.38558172  1
  N  N14  4  0.18475251  0.48419313  0.77274152  1
  N  N15  4  0.19893784  0.71920923  0.81881619  1
  N  N16  4  0.22425157  0.43198080  0.52959461  1
  N  N17  4  0.24626140  0.53236558  0.60813438  1
  N  N18  4  0.25499686  0.57279991  0.11801843  1
  N  N19  4  0.26244969  0.71148320  0.15913659  1
  N  N20  4  0.37665681  0.48648556  0.72997526  1
  N  N21  4  0.38131319  0.33899059  0.73817161  1
  N  N22  4  0.38987670  0.70691135  0.77389566  1
  N  N23  4  0.39605473  0.67269739  0.33489194  1
  O  O24  4  0.04409226  0.35791389  0.74828289  1
  O  O25  4  0.08016769  0.61737916  0.35093968  1
  O  O26  4  0.10001331  0.38459099  0.90035292  1
  O  O27  4  0.13236874  0.74425716  0.97174780  1
  O  O28  4  0.13758208  0.39335430  0.52454725  1
  O  O29  4  0.17671493  0.50988739  0.13228162  1
  O  O30  4  0.29369109  0.40223444  0.47517351  1
  O  O31  4  0.32702160  0.53295733  0.06919064  1
  O  O32  4  0.37929169  0.29090763  0.82277387  1
  O  O33  4  0.39068124  0.27380343  0.65961387  1
  O  O34  4  0.39885909  0.69700001  0.42478784  1
  O  O35  4  0.40057471  0.55815912  0.29269057  1
