###############################################################################################
#
# CIF file generated by modified CIFWriter class 
# in pymatgen (v2025.03.10) https://pymatgen.org/
#
###############################################################################################
data_PBE+MBD_tight_c2ce6f47ed4d57b
_symmetry_space_group_name_H-M   C2
_cell_length_a   17.79753122
_cell_length_b   14.11918026
_cell_length_c   8.10301538
_cell_angle_alpha   90.00000000
_cell_angle_beta   79.81989551
_cell_angle_gamma   90.00000000
_symmetry_Int_Tables_number   5
_chemical_formula_moiety   'C6 H6 N12 O12'
_chemical_formula_sum   'H24 C24 N48 O48'
_cell_volume   2004.12330982
_cell_formula_units_Z   4
loop_
 _symmetry_equiv_pos_site_id
 _symmetry_equiv_pos_as_xyz
  1  'x, y, z'
  2  '-x, y, -z'
  3  'x+1/2, y+1/2, z'
  4  '-x+1/2, y+1/2, -z'
loop_
 _atom_site_type_symbol
 _atom_site_label
 _atom_site_symmetry_multiplicity
 _atom_site_fract_x
 _atom_site_fract_y
 _atom_site_fract_z
 _atom_site_occupancy
  H  H0  4  0.05787624  0.44544850  0.52755880  1
  H  H1  4  0.08004584  0.60146166  0.63434029  1
  H  H2  4  0.08349541  0.63168614  0.12987117  1
  H  H3  4  0.19032082  0.07858022  0.57464544  1
  H  H4  4  0.21337491  -0.07813920  0.68109932  1
  H  H5  4  0.21420949  0.61555735  0.01555630  1
  C  C6  4  0.10185464  0.48439115  0.44326919  1
  C  C7  4  0.11376062  0.59831558  0.22068649  1
  C  C8  4  0.11651923  0.58610175  0.51418145  1
  C  C9  4  0.20251667  0.58836315  0.14374282  1
  C  C10  4  0.23836088  0.47012123  0.32118095  1
  C  C11  4  0.24682788  0.07208089  0.60896644  1
  N  N12  4  0.07058074  0.43521922  0.16703820  1
  N  N13  4  0.07868542  0.50840159  0.28321296  1
  N  N14  4  0.09666118  0.74606837  0.39342204  1
  N  N15  4  0.09926326  0.64690277  0.38052516  1
  N  N16  4  0.17064705  0.42726588  0.41928609  1
  N  N17  4  0.17852352  0.17332502  0.83821860  1
  N  N18  4  0.18151919  0.36935027  0.55723335  1
  N  N19  4  0.19541360  0.58997521  0.53605162  1
  N  N20  4  0.21499864  0.64150192  0.67381624  1
  N  N21  4  0.22403816  0.48896079  0.15358223  1
  N  N22  4  0.22838731  -0.05568117  0.98637235  1
  N  N23  4  0.24716074  0.63735942  0.25268832  1
  O  O24  4  0.05290695  0.35791691  0.22823892  1
  O  O25  4  0.07944012  0.46002889  0.02015492  1
  O  O26  4  0.09173995  0.77702719  0.53630376  1
  O  O27  4  0.09700417  0.78935384  0.26309202  1
  O  O28  4  0.12412685  0.16344503  0.76775631  1
  O  O29  4  0.12633712  0.35930238  0.66893983  1
  O  O30  4  0.16237438  0.65661198  0.79023173  1
  O  O31  4  0.18168459  0.21241644  0.97010306  1
  O  O32  4  0.19321188  -0.12510301  0.95332943  1
  O  O33  4  0.21791509  0.16160748  0.33514493  1
  O  O34  4  0.23142326  -0.02161089  1.12356653  1
  O  O35  4  0.24473702  0.33355445  0.54726404  1
