###############################################################################################
#
# CIF file generated by modified CIFWriter class 
# in pymatgen (v2025.03.10) https://pymatgen.org/
#
###############################################################################################
data_PBE+MBD_tight_c5609ee9986049b
_symmetry_space_group_name_H-M   P2_1/c
_cell_length_a   14.59193499
_cell_length_b   7.49747869
_cell_length_c   15.66705518
_cell_angle_alpha   90.00000000
_cell_angle_beta   93.50614504
_cell_angle_gamma   90.00000000
_symmetry_Int_Tables_number   14
_chemical_formula_moiety   'C6 H6 N12 O12'
_chemical_formula_sum   'H24 C24 N48 O48'
_cell_volume   1710.81025509
_cell_formula_units_Z   4
loop_
 _symmetry_equiv_pos_site_id
 _symmetry_equiv_pos_as_xyz
  1  'x, y, z'
  2  '-x, -y, -z'
  3  '-x, y+1/2, -z+1/2'
  4  'x, -y+1/2, z+1/2'
loop_
 _atom_site_type_symbol
 _atom_site_label
 _atom_site_symmetry_multiplicity
 _atom_site_fract_x
 _atom_site_fract_y
 _atom_site_fract_z
 _atom_site_occupancy
  H  H0  4  0.13855963  0.55450157  0.94255082  1
  H  H1  4  0.20022284  0.84155835  0.20105123  1
  H  H2  4  0.20138412  0.80220105  1.01953331  1
  H  H3  4  0.31936952  0.41081474  0.33200685  1
  H  H4  4  0.32428504  0.47249663  0.76039471  1
  H  H5  4  0.43433101  0.60002955  0.40093028  1
  C  C6  4  0.18873207  0.62401585  0.90565793  1
  C  C7  4  0.22468987  0.79981438  0.26520135  1
  C  C8  4  0.23180143  0.78999855  0.95791610  1
  C  C9  4  0.29272638  0.54418223  0.34339846  1
  C  C10  4  0.30437935  0.57643160  0.80457108  1
  C  C11  4  0.36945916  0.67021876  0.38652397  1
  N  N12  4  0.06913990  0.57961746  0.79024054  1
  N  N13  4  0.14332011  1.05006272  0.90058772  1
  N  N14  4  0.14899222  0.68460748  0.82342951  1
  N  N15  4  0.22590638  0.95573900  0.90962870  1
  N  N16  4  0.22892701  0.99520719  0.69427265  1
  N  N17  4  0.25861009  0.87964735  0.76327924  1
  N  N18  4  0.25963533  0.50318501  0.87797759  1
  N  N19  4  0.30345927  0.38394461  0.93354508  1
  N  N20  4  0.33103471  0.76806941  0.96750291  1
  N  N21  4  0.37531124  0.83876568  1.04540229  1
  N  N22  4  0.38354206  0.81570202  0.32949231  1
  N  N23  4  0.47394347  0.88359543  0.32128676  1
  O  O24  4  0.01729765  0.96751389  0.34364955  1
  O  O25  4  0.06123238  0.93971521  0.21305540  1
  O  O26  4  0.08367133  0.49482736  0.44760591  1
  O  O27  4  0.14115940  1.17199481  0.84806430  1
  O  O28  4  0.18211605  0.92554287  0.63621485  1
  O  O29  4  0.25582678  0.35114973  0.19944864  1
  O  O30  4  0.26783808  1.14398984  0.50106030  1
  O  O31  4  0.32709843  0.64315614  0.60592955  1
  O  O32  4  0.37310343  1.18724881  0.40815083  1
  O  O33  4  0.45755848  0.86303793  1.04410385  1
  O  O34  4  0.46443953  0.19138717  0.63656884  1
  O  O35  4  0.48045541  1.00633453  0.27067525  1
