###############################################################################################
#
# CIF file generated by modified CIFWriter class 
# in pymatgen (v2025.03.10) https://pymatgen.org/
#
###############################################################################################
data_PBE+MBD_tight_c817fe610f1ed2f
_symmetry_space_group_name_H-M   P2_1/c
_cell_length_a   12.47553361
_cell_length_b   8.29979482
_cell_length_c   16.50762941
_cell_angle_alpha   90.00000000
_cell_angle_beta   115.44960354
_cell_angle_gamma   90.00000000
_symmetry_Int_Tables_number   14
_chemical_formula_moiety   'C6 H6 N12 O12'
_chemical_formula_sum   'H24 C24 N48 O48'
_cell_volume   1543.41047611
_cell_formula_units_Z   4
loop_
 _symmetry_equiv_pos_site_id
 _symmetry_equiv_pos_as_xyz
  1  'x, y, z'
  2  '-x, -y, -z'
  3  '-x, y+1/2, -z+1/2'
  4  'x, -y+1/2, z+1/2'
loop_
 _atom_site_type_symbol
 _atom_site_label
 _atom_site_symmetry_multiplicity
 _atom_site_fract_x
 _atom_site_fract_y
 _atom_site_fract_z
 _atom_site_occupancy
  H  H0  4  -0.00449157  0.74782048  0.40734118  1
  H  H1  4  0.11101406  0.50826605  0.46082160  1
  H  H2  4  0.22768287  1.10318311  0.55162245  1
  H  H3  4  0.24154195  1.07762930  0.40956935  1
  H  H4  4  0.42331671  0.68277768  0.64348975  1
  H  H5  4  0.43892169  0.84057750  0.00281284  1
  C  C6  4  0.09009990  0.72364281  -0.05880270  1
  C  C7  4  0.16726305  0.88453065  -0.02290255  1
  C  C8  4  0.22989809  0.52228128  0.03209431  1
  C  C9  4  0.23796177  0.53902680  -0.06081618  1
  C  C10  4  0.34483354  0.72956117  0.58665546  1
  C  C11  4  0.35456630  0.71286454  0.49413774  1
  N  N12  4  0.07862450  0.86946458  0.57897026  1
  N  N13  4  0.09920120  0.67448631  -0.20247162  1
  N  N14  4  0.11598910  0.60455892  0.01178009  1
  N  N15  4  0.12786580  0.87372002  0.38533297  1
  N  N16  4  0.23944827  0.63249466  0.57332271  1
  N  N17  4  0.25451097  0.60721768  0.43974585  1
  N  N18  4  0.25604454  1.00894761  0.12815772  1
  N  N19  4  0.28386973  0.45152028  0.41761221  1
  N  N20  4  0.32979123  0.60269817  0.10061306  1
  N  N21  4  0.34217360  0.86824350  0.45332818  1
  N  N22  4  0.37548692  0.54235135  0.19120940  1
  N  N23  4  0.41959689  0.91676699  0.41562558  1
  O  O24  4  0.00168730  0.73325223  0.06341351  1
  O  O25  4  0.02180043  0.72250276  0.26684787  1
  O  O26  4  0.12330704  0.54272299  0.14488297  1
  O  O27  4  0.15329575  0.60605052  -0.23942026  1
  O  O28  4  0.17533864  0.39233771  0.59920508  1
  O  O29  4  0.20873529  0.34663716  0.40173170  1
  O  O30  4  0.34460732  1.01130566  0.19856846  1
  O  O31  4  0.36418040  0.39829680  0.19859106  1
  O  O32  4  0.37834605  1.05773220  -0.08770946  1
  O  O33  4  0.40412073  1.05237424  0.38384145  1
  O  O34  4  0.42386499  0.85838258  0.75014311  1
  O  O35  4  0.49707239  0.82046273  0.42175159  1
