###############################################################################################
#
# CIF file generated by modified CIFWriter class 
# in pymatgen (v2025.03.10) https://pymatgen.org/
#
###############################################################################################
data_PBE+MBD_tight_ca35756e2934bf1
_symmetry_space_group_name_H-M   C2
_cell_length_a   14.31002596
_cell_length_b   8.63777145
_cell_length_c   13.32898188
_cell_angle_alpha   90.00000000
_cell_angle_beta   95.45040310
_cell_angle_gamma   90.00000000
_symmetry_Int_Tables_number   5
_chemical_formula_moiety   'C6 H6 N12 O12'
_chemical_formula_sum   'H24 C24 N48 O48'
_cell_volume   1640.10298893
_cell_formula_units_Z   4
loop_
 _symmetry_equiv_pos_site_id
 _symmetry_equiv_pos_as_xyz
  1  'x, y, z'
  2  '-x, y, -z'
  3  'x+1/2, y+1/2, z'
  4  '-x+1/2, y+1/2, -z'
loop_
 _atom_site_type_symbol
 _atom_site_label
 _atom_site_symmetry_multiplicity
 _atom_site_fract_x
 _atom_site_fract_y
 _atom_site_fract_z
 _atom_site_occupancy
  H  H0  4  0.05106981  0.83275148  0.64001004  1
  H  H1  4  0.11472670  0.97399601  0.78225705  1
  H  H2  4  0.13661675  0.26044757  0.14393089  1
  H  H3  4  0.13899326  0.39578831  0.70092649  1
  H  H4  4  0.24402396  0.01061630  0.39597249  1
  H  H5  4  0.24943556  0.64204630  0.95357755  1
  C  C6  4  0.10717867  0.76625475  0.68124550  1
  C  C7  4  0.14981478  0.86202151  0.77820182  1
  C  C8  4  0.15745762  0.51345112  0.72547815  1
  C  C9  4  0.20281645  0.23606638  0.18917842  1
  C  C10  4  0.22192356  0.65926156  0.87514631  1
  C  C11  4  0.23341287  0.58851317  0.66168316  1
  N  N12  4  -0.00158290  0.55059716  0.63998467  1
  N  N13  4  0.07407763  0.61434567  0.70912060  1
  N  N14  4  0.09982075  0.05922632  0.27399517  1
  N  N15  4  0.13067070  0.85318295  0.96071580  1
  N  N16  4  0.14296489  0.76981269  0.86884343  1
  N  N17  4  0.14940784  0.40726346  0.89411007  1
  N  N18  4  0.17992737  0.72008181  0.61723809  1
  N  N19  4  0.18544062  0.13884233  0.27359475  1
  N  N20  4  0.19433728  0.51183055  0.83039685  1
  N  N21  4  0.20349771  0.52240682  0.21421852  1
  N  N22  4  0.22091237  0.82931159  0.55878337  1
  N  N23  4  0.24931553  0.37756738  0.22660952  1
  O  O24  4  -0.05493462  0.64448044  0.59706780  1
  O  O25  4  -0.00656597  0.40998745  0.63663744  1
  O  O26  4  0.03883967  0.09247455  0.20678508  1
  O  O27  4  0.09397607  -0.03437864  0.34212719  1
  O  O28  4  0.09618057  0.31277581  0.85270971  1
  O  O29  4  0.10669709  0.98843638  0.95209136  1
  O  O30  4  0.11850794  0.51744853  0.19373525  1
  O  O31  4  0.14175444  0.77632546  1.03779364  1
  O  O32  4  0.17186886  0.42106257  0.98487502  1
  O  O33  4  0.18260367  0.95693215  0.55343967  1
  O  O34  4  0.21096065  0.28738044  0.48341318  1
  O  O35  4  0.24675562  1.13659949  0.77012105  1
