###############################################################################################
#
# CIF file generated by modified CIFWriter class 
# in pymatgen (v2025.03.10) https://pymatgen.org/
#
###############################################################################################
data_PBE+MBD_tight_cfdab422f36de49
_symmetry_space_group_name_H-M   P2_1
_cell_length_a   16.28510848
_cell_length_b   12.31212403
_cell_length_c   8.48838798
_cell_angle_alpha   90.00000000
_cell_angle_beta   90.00000000
_cell_angle_gamma   77.62747885
_symmetry_Int_Tables_number   4
_chemical_formula_moiety   'C6 H6 N12 O12'
_chemical_formula_sum   'H24 C24 N48 O48'
_cell_volume   1662.43036416
_cell_formula_units_Z   4
loop_
 _symmetry_equiv_pos_site_id
 _symmetry_equiv_pos_as_xyz
  1  'x, y, z'
  2  '-x, -y, z+1/2'
  3  'x+1/2, y+1/2, z'
  4  '-x+1/2, -y+1/2, z+1/2'
loop_
 _atom_site_type_symbol
 _atom_site_label
 _atom_site_symmetry_multiplicity
 _atom_site_fract_x
 _atom_site_fract_y
 _atom_site_fract_z
 _atom_site_occupancy
  H  H0  4  -0.09269787  0.24053609  0.95239845  1
  H  H1  4  -0.09268418  0.47337662  0.60609041  1
  H  H2  4  -0.03850016  0.36175238  0.38305575  1
  H  H3  4  -0.00282548  0.05174075  0.56022911  1
  H  H4  4  0.03985684  0.30106492  0.97268343  1
  H  H5  4  0.12905086  0.10976367  0.58046687  1
  C  C6  4  -0.06420049  0.24908216  0.83768132  1
  C  C7  4  -0.06087256  0.38975815  0.64251991  1
  C  C8  4  -0.02490757  0.31533662  0.49262507  1
  C  C9  4  -0.01115088  0.13678264  0.60384704  1
  C  C10  4  0.02258325  0.28727740  0.85091974  1
  C  C11  4  0.07587622  0.17500132  0.61845038  1
  N  N12  4  -0.19504331  0.33356110  0.69360337  1
  N  N13  4  -0.11412232  0.33889317  0.74330302  1
  N  N14  4  -0.08591353  0.05640219  0.81005132  1
  N  N15  4  -0.07762378  0.17292840  0.34096476  1
  N  N16  4  -0.06073501  0.21621161  0.49220067  1
  N  N17  4  -0.04992420  0.14355816  0.75597156  1
  N  N18  4  0.00392348  0.39173026  0.75954065  1
  N  N19  4  0.06484830  0.27236863  0.51489412  1
  N  N20  4  0.06573001  0.45067530  0.73011931  1
  N  N21  4  0.08763370  0.20477678  0.77921471  1
  N  N22  4  0.12001362  0.26972539  0.38150754  1
  N  N23  4  0.16419280  0.16010779  0.86103929  1
  O  O24  4  -0.22934496  0.27164213  0.77086736  1
  O  O25  4  -0.22274464  0.39229949  0.58158405  1
  O  O26  4  -0.11186387  0.06450167  0.94574805  1
  O  O27  4  -0.08770326  0.07737832  0.34137521  1
  O  O28  4  -0.08472633  -0.02129802  0.71911396  1
  O  O29  4  -0.08394193  0.23713027  0.23013979  1
  O  O30  4  0.05474479  0.51266470  0.61471718  1
  O  O31  4  0.09474539  0.33882606  0.27929771  1
  O  O32  4  0.12375245  0.43789446  0.82537034  1
  O  O33  4  0.16663875  0.18760697  0.99842754  1
  O  O34  4  0.18701732  0.20375027  0.38951274  1
  O  O35  4  0.21792605  0.09780375  0.78459153  1
