###############################################################################################
#
# CIF file generated by modified CIFWriter class 
# in pymatgen (v2025.03.10) https://pymatgen.org/
#
###############################################################################################
data_PBE+MBD_tight_cffa3ed20eb9f2d
_symmetry_space_group_name_H-M   P2_1/c
_cell_length_a   14.76604921
_cell_length_b   7.99755359
_cell_length_c   13.82135269
_cell_angle_alpha   90.00000000
_cell_angle_beta   90.80262330
_cell_angle_gamma   90.00000000
_symmetry_Int_Tables_number   14
_chemical_formula_moiety   'C6 H6 N12 O12'
_chemical_formula_sum   'H24 C24 N48 O48'
_cell_volume   1632.03476653
_cell_formula_units_Z   4
loop_
 _symmetry_equiv_pos_site_id
 _symmetry_equiv_pos_as_xyz
  1  'x, y, z'
  2  '-x, -y, -z'
  3  '-x, y+1/2, -z+1/2'
  4  'x, -y+1/2, z+1/2'
loop_
 _atom_site_type_symbol
 _atom_site_label
 _atom_site_symmetry_multiplicity
 _atom_site_fract_x
 _atom_site_fract_y
 _atom_site_fract_z
 _atom_site_occupancy
  H  H0  4  0.07798862  0.90023114  0.30477085  1
  H  H1  4  0.18839150  0.73991205  0.70470582  1
  H  H2  4  0.25077326  0.23968755  0.71946226  1
  H  H3  4  0.26690197  0.59376596  1.03087380  1
  H  H4  4  0.36120035  0.23248841  0.84626740  1
  H  H5  4  0.38030177  0.71568297  0.92770145  1
  C  C6  4  0.14765410  0.56092483  0.82133935  1
  C  C7  4  0.21942253  0.85047477  0.25420154  1
  C  C8  4  0.24834576  0.35398670  0.76263908  1
  C  C9  4  0.25929049  0.55433999  0.95548905  1
  C  C10  4  0.32214575  0.34855868  0.84815247  1
  C  C11  4  0.33246349  0.63637686  0.88760727  1
  N  N12  4  0.08528936  1.21552482  0.26602368  1
  N  N13  4  0.10246881  0.65679244  0.98433918  1
  N  N14  4  0.15979583  0.38117766  0.80364220  1
  N  N15  4  0.16991117  0.90148467  0.42059986  1
  N  N16  4  0.22689489  1.24660773  0.48250309  1
  N  N17  4  0.25568313  0.99566864  0.20330487  1
  N  N18  4  0.28108155  1.12385053  0.44260363  1
  N  N19  4  0.28583770  0.73404151  0.81499727  1
  N  N20  4  0.32229184  0.51808108  0.63383106  1
  N  N21  4  0.32342501  0.88817429  0.78499683  1
  N  N22  4  0.38020825  0.49461190  0.84268670  1
  N  N23  4  0.47386098  0.46971805  0.87168814  1
  O  O24  4  0.01069675  1.15008260  0.27036941  1
  O  O25  4  0.02672044  0.67519671  0.94948671  1
  O  O26  4  0.10403089  0.14399806  0.73929948  1
  O  O27  4  0.12758019  0.81375189  0.56710957  1
  O  O28  4  0.18216504  0.29498290  1.05261780  1
  O  O29  4  0.23098968  1.38614562  0.44525525  1
  O  O30  4  0.28419066  0.54088056  0.21817425  1
  O  O31  4  0.32917796  0.65482882  0.59435725  1
  O  O32  4  0.36566717  0.39071511  0.61722704  1
  O  O33  4  0.38942366  0.56186018  0.33100784  1
  O  O34  4  0.48627830  0.09315200  0.59813158  1
  O  O35  4  0.49583427  -0.16970530  0.64206531  1
