###############################################################################################
#
# CIF file generated by modified CIFWriter class 
# in pymatgen (v2025.03.10) https://pymatgen.org/
#
###############################################################################################
data_PBE+MBD_tight_d342669ddab7c3d
_symmetry_space_group_name_H-M   P2_1/c
_cell_length_a   14.03129251
_cell_length_b   8.00965904
_cell_length_c   15.09110363
_cell_angle_alpha   90.00000000
_cell_angle_beta   99.59442100
_cell_angle_gamma   90.00000000
_symmetry_Int_Tables_number   14
_chemical_formula_moiety   'C6 H6 N12 O12'
_chemical_formula_sum   'H24 C24 N48 O48'
_cell_volume   1672.30323146
_cell_formula_units_Z   4
loop_
 _symmetry_equiv_pos_site_id
 _symmetry_equiv_pos_as_xyz
  1  'x, y, z'
  2  '-x, -y, -z'
  3  '-x, y+1/2, -z+1/2'
  4  'x, -y+1/2, z+1/2'
loop_
 _atom_site_type_symbol
 _atom_site_label
 _atom_site_symmetry_multiplicity
 _atom_site_fract_x
 _atom_site_fract_y
 _atom_site_fract_z
 _atom_site_occupancy
  H  H0  4  0.11379731  0.82499969  -0.03537533  1
  H  H1  4  0.11900950  0.53030467  -0.07047792  1
  H  H2  4  0.16270229  0.57925961  0.20050651  1
  H  H3  4  0.33421153  0.57833678  0.23790776  1
  H  H4  4  0.41506613  0.82726068  0.02470285  1
  H  H5  4  0.41806156  0.53222997  -0.00408248  1
  C  C6  4  0.17437875  0.73886066  0.50596467  1
  C  C7  4  0.17703751  0.56756439  -0.01649891  1
  C  C8  4  0.19573957  0.89524432  0.64121068  1
  C  C9  4  0.31115901  0.89501707  0.66644453  1
  C  C10  4  0.35234753  0.73710983  0.54270737  1
  C  C11  4  0.35367445  0.93052539  0.52254618  1
  N  N12  4  0.08020374  0.39261389  0.07064798  1
  N  N13  4  0.09422612  0.86424573  0.13155680  1
  N  N14  4  0.16592913  0.48531809  0.06873008  1
  N  N15  4  0.16598383  0.76413841  0.10032285  1
  N  N16  4  0.26481994  0.84145877  -0.00543122  1
  N  N17  4  0.26925789  0.53053199  -0.04226083  1
  N  N18  4  0.26999154  0.59454737  0.40794268  1
  N  N19  4  0.27496152  0.38352145  -0.09721832  1
  N  N20  4  0.34227048  0.90941917  0.18470816  1
  N  N21  4  0.35206803  0.48756955  0.11004814  1
  N  N22  4  0.35296792  0.76115211  0.13930867  1
  N  N23  4  0.43904174  0.40325572  0.15047468  1
  O  O24  4  0.04224479  1.16764700  0.49841687  1
  O  O25  4  0.05431412  0.37561655  0.14337522  1
  O  O26  4  0.06641221  0.98378628  0.08410621  1
  O  O27  4  0.07247624  0.82391488  0.20342349  1
  O  O28  4  0.19274778  0.92478197  -0.14239858  1
  O  O29  4  0.19870417  0.33450562  -0.13949659  1
  O  O30  4  0.31373086  0.89458141  0.25698674  1
  O  O31  4  0.35067159  0.56033388  0.39247918  1
  O  O32  4  0.35594821  0.32879736  -0.09745610  1
  O  O33  4  0.36421964  1.03779584  0.14900172  1
  O  O34  4  0.45111268  1.11334123  0.73173431  1
  O  O35  4  0.48931179  1.15139802  0.59822510  1
