###############################################################################################
#
# CIF file generated by modified CIFWriter class 
# in pymatgen (v2025.03.10) https://pymatgen.org/
#
###############################################################################################
data_PBE+MBD_tight_d5ba0f448d6c303
_symmetry_space_group_name_H-M   P2_1/c
_cell_length_a   13.70498985
_cell_length_b   8.09629670
_cell_length_c   14.66614368
_cell_angle_alpha   90.00000000
_cell_angle_beta   97.11542825
_cell_angle_gamma   90.00000000
_symmetry_Int_Tables_number   14
_chemical_formula_moiety   'C6 H6 N12 O12'
_chemical_formula_sum   'H24 C24 N48 O48'
_cell_volume   1614.81753098
_cell_formula_units_Z   4
loop_
 _symmetry_equiv_pos_site_id
 _symmetry_equiv_pos_as_xyz
  1  'x, y, z'
  2  '-x, -y, -z'
  3  '-x, y+1/2, -z+1/2'
  4  'x, -y+1/2, z+1/2'
loop_
 _atom_site_type_symbol
 _atom_site_label
 _atom_site_symmetry_multiplicity
 _atom_site_fract_x
 _atom_site_fract_y
 _atom_site_fract_z
 _atom_site_occupancy
  H  H0  4  0.04242519  1.05646660  0.83561280  1
  H  H1  4  0.10068213  0.53387375  0.49001444  1
  H  H2  4  0.25844850  0.88747611  0.69018507  1
  H  H3  4  0.29859984  0.32974097  0.23268658  1
  H  H4  4  0.35550852  0.73715574  0.95707563  1
  H  H5  4  0.39421748  1.02050601  1.00036339  1
  C  C6  4  0.12063666  1.02554644  0.84312501  1
  C  C7  4  0.15913638  0.53425084  0.44578673  1
  C  C8  4  0.24717023  0.91368383  0.76119342  1
  C  C9  4  0.27386439  0.40077548  0.28910793  1
  C  C10  4  0.30502718  0.67478860  0.41935457  1
  C  C11  4  0.33083022  0.48907892  0.44748071  1
  N  N12  4  0.08955268  0.76115489  0.76414875  1
  N  N13  4  0.14268312  0.90702212  0.77437035  1
  N  N14  4  0.17150155  0.18262177  0.34810215  1
  N  N15  4  0.17972138  0.34053969  0.31359340  1
  N  N16  4  0.18647255  0.68471459  1.01021658  1
  N  N17  4  0.20428567  0.80294928  0.94166768  1
  N  N18  4  0.24129696  1.07079136  0.98147081  1
  N  N19  4  0.24547693  1.14427953  1.06939720  1
  N  N20  4  0.30753167  0.80576397  0.82227501  1
  N  N21  4  0.34985389  0.40044951  0.36658623  1
  N  N22  4  0.36301658  0.67641107  0.78793677  1
  N  N23  4  0.43683303  1.19292763  0.86501695  1
  O  O24  4  0.01545431  0.75463892  0.80340579  1
  O  O25  4  0.09863587  1.34566347  0.88658511  1
  O  O26  4  0.10649813  0.69347337  1.03799721  1
  O  O27  4  0.12023935  0.84489360  0.21517915  1
  O  O28  4  0.16798096  0.34681718  0.60230234  1
  O  O29  4  0.23779020  0.08672582  0.33543019  1
  O  O30  4  0.25158312  0.91725975  0.53098921  1
  O  O31  4  0.32592349  1.19890890  1.10117279  1
  O  O32  4  0.34917386  0.84628930  0.20502614  1
  O  O33  4  0.42004088  0.60492644  0.84495515  1
  O  O34  4  0.44677944  0.23849575  0.29308867  1
  O  O35  4  0.49406574  1.19207988  0.93645832  1
