###############################################################################################
#
# CIF file generated by modified CIFWriter class 
# in pymatgen (v2025.03.10) https://pymatgen.org/
#
###############################################################################################
data_PBE+MBD_tight_d69b6649dd4a78f
_symmetry_space_group_name_H-M   P2_12_12_1
_cell_length_a   16.12969218
_cell_length_b   8.67837260
_cell_length_c   11.63397454
_cell_angle_alpha   90.00000000
_cell_angle_beta   90.00000000
_cell_angle_gamma   90.00000000
_symmetry_Int_Tables_number   19
_chemical_formula_moiety   'C6 H6 N12 O12'
_chemical_formula_sum   'H24 C24 N48 O48'
_cell_volume   1628.51769033
_cell_formula_units_Z   4
loop_
 _symmetry_equiv_pos_site_id
 _symmetry_equiv_pos_as_xyz
  1  'x, y, z'
  2  'x+1/2, -y+1/2, -z'
  3  '-x, y+1/2, -z+1/2'
  4  '-x+1/2, -y, z+1/2'
loop_
 _atom_site_type_symbol
 _atom_site_label
 _atom_site_symmetry_multiplicity
 _atom_site_fract_x
 _atom_site_fract_y
 _atom_site_fract_z
 _atom_site_occupancy
  H  H0  4  -0.00227940  0.35990723  0.31797979  1
  H  H1  4  0.01994856  -0.01763452  0.53664361  1
  H  H2  4  0.13793699  0.32425882  0.25241236  1
  H  H3  4  0.14893673  0.52899926  0.56324192  1
  H  H4  4  0.16179298  -0.05486198  0.46963800  1
  H  H5  4  0.16365884  0.31374493  0.68994407  1
  C  C6  4  0.03779706  0.31554103  0.38596100  1
  C  C7  4  0.05112329  0.09060264  0.51563437  1
  C  C8  4  0.13015012  0.29055308  0.34240976  1
  C  C9  4  0.13069144  0.42156622  0.52141569  1
  C  C10  4  0.13998824  0.27682803  0.60627296  1
  C  C11  4  0.14295226  0.06618046  0.47106367  1
  N  N12  4  -0.04365676  0.08346701  0.35161008  1
  N  N13  4  -0.00332481  0.24178012  0.68000892  1
  N  N14  4  0.00254737  0.17265041  0.42886672  1
  N  N15  4  0.00523573  0.57202586  0.46695025  1
  N  N16  4  0.04518016  0.42537660  0.48005069  1
  N  N17  4  0.06416250  0.18714074  0.61603147  1
  N  N18  4  0.14871065  0.12890697  0.35594310  1
  N  N19  4  0.17888663  0.39047097  0.41826501  1
  N  N20  4  0.19049852  0.15500832  0.55606261  1
  N  N21  4  0.20332412  0.05566189  0.27495562  1
  N  N22  4  0.22569937  0.81730720  1.03645523  1
  N  N23  4  0.22912244  0.50982956  0.37024548  1
  O  O24  4  -0.06821694  0.17090862  0.66884362  1
  O  O25  4  -0.06668373  0.14657843  0.26276930  1
  O  O26  4  -0.05839431  -0.04966937  0.38077415  1
  O  O27  4  -0.05494886  0.57433781  0.40364108  1
  O  O28  4  0.01107489  0.35314884  0.74197102  1
  O  O29  4  0.03331009  0.67699148  0.52514401  1
  O  O30  4  0.19010714  0.90904007  0.97337986  1
  O  O31  4  0.19618775  0.70550468  1.08602359  1
  O  O32  4  0.21590257  -0.08114134  0.29160852  1
  O  O33  4  0.22797878  0.13571016  0.19606557  1
  O  O34  4  0.24666226  0.61644353  0.43414879  1
  O  O35  4  0.24736478  0.51243850  0.77184123  1
