###############################################################################################
#
# CIF file generated by modified CIFWriter class 
# in pymatgen (v2025.03.10) https://pymatgen.org/
#
###############################################################################################
data_PBE+MBD_tight_d7ee4f02a9d5d6b
_symmetry_space_group_name_H-M   Pna2_1
_cell_length_a   10.51189807
_cell_length_b   12.22484291
_cell_length_c   12.56293244
_cell_angle_alpha   90.00000000
_cell_angle_beta   90.00000000
_cell_angle_gamma   90.00000000
_symmetry_Int_Tables_number   33
_chemical_formula_moiety   'C6 H6 N12 O12'
_chemical_formula_sum   'H24 C24 N48 O48'
_cell_volume   1614.41599746
_cell_formula_units_Z   4
loop_
 _symmetry_equiv_pos_site_id
 _symmetry_equiv_pos_as_xyz
  1  'x, y, z'
  2  '-x, -y, z+1/2'
  3  '-x+1/2, y+1/2, z+1/2'
  4  'x+1/2, -y+1/2, z'
loop_
 _atom_site_type_symbol
 _atom_site_label
 _atom_site_symmetry_multiplicity
 _atom_site_fract_x
 _atom_site_fract_y
 _atom_site_fract_z
 _atom_site_occupancy
  H  H0  4  0.00917650  -0.14406524  0.84871382  1
  H  H1  4  0.04712978  0.50392622  0.45367944  1
  H  H2  4  0.09742355  -0.11377603  1.02115906  1
  H  H3  4  0.15739265  0.10397103  0.67719202  1
  H  H4  4  0.18712315  0.66140669  0.47616939  1
  H  H5  4  0.20315516  0.44673169  0.15523075  1
  C  C6  4  0.09144682  -0.08971990  0.84458145  1
  C  C7  4  0.13946682  0.49275592  0.41527771  1
  C  C8  4  0.15051474  -0.06912401  0.96051054  1
  C  C9  4  0.17789339  0.06242438  0.75241328  1
  C  C10  4  0.22980249  0.59605846  0.42853781  1
  C  C11  4  0.23196912  0.45887174  0.23806738  1
  N  N12  4  -0.05498960  0.02850534  0.74069990  1
  N  N13  4  0.00089632  0.49433347  0.25571329  1
  N  N14  4  0.05094792  0.10758423  1.00369682  1
  N  N15  4  0.06079349  0.01620147  0.79842032  1
  N  N16  4  0.12000836  0.46893225  0.30354801  1
  N  N17  4  0.15828241  -0.21712171  0.70168134  1
  N  N18  4  0.16027407  0.04730659  0.98429851  1
  N  N19  4  0.16990020  0.30103541  0.47516593  1
  N  N20  4  0.19107010  -0.13296280  0.77610445  1
  N  N21  4  0.21458912  0.40722274  0.46606284  1
  N  N22  4  0.22727190  0.25272644  0.80745786  1
  N  N23  4  0.24091192  0.13665522  0.82367620  1
  O  O24  4  -0.13464751  -0.04301151  0.75130516  1
  O  O25  4  -0.08791467  0.50665688  0.31663723  1
  O  O26  4  -0.06340561  0.11368683  0.68988676  1
  O  O27  4  -0.04177002  0.05536919  1.03614454  1
  O  O28  4  0.00024230  0.49888329  0.15834827  1
  O  O29  4  0.05439226  0.28949902  0.46463617  1
  O  O30  4  0.05760609  0.20643271  0.98950640  1
  O  O31  4  0.06062734  -0.26747150  0.72013643  1
  O  O32  4  0.17027729  0.27956707  0.72717359  1
  O  O33  4  0.22104980  0.81054563  0.37328878  1
  O  O34  4  0.23538396  -0.23275723  0.63068797  1
  O  O35  4  0.24923208  0.23015993  0.49447202  1
