###############################################################################################
#
# CIF file generated by modified CIFWriter class 
# in pymatgen (v2025.03.10) https://pymatgen.org/
#
###############################################################################################
data_PBE+MBD_tight_dbbe8c22676bd07
_symmetry_space_group_name_H-M   Pca2_1
_cell_length_a   12.57904249
_cell_length_b   10.73461856
_cell_length_c   11.76698509
_cell_angle_alpha   90.00000000
_cell_angle_beta   90.00000000
_cell_angle_gamma   90.00000000
_symmetry_Int_Tables_number   29
_chemical_formula_moiety   'C6 H6 N12 O12'
_chemical_formula_sum   'H24 C24 N48 O48'
_cell_volume   1588.91038729
_cell_formula_units_Z   4
loop_
 _symmetry_equiv_pos_site_id
 _symmetry_equiv_pos_as_xyz
  1  'x, y, z'
  2  '-x, -y, z+1/2'
  3  '-x+1/2, y, z+1/2'
  4  'x+1/2, -y, z'
loop_
 _atom_site_type_symbol
 _atom_site_label
 _atom_site_symmetry_multiplicity
 _atom_site_fract_x
 _atom_site_fract_y
 _atom_site_fract_z
 _atom_site_occupancy
  H  H0  4  -0.21430854  0.70049362  0.06611678  1
  H  H1  4  -0.12184898  0.84287333  -0.05576938  1
  H  H2  4  -0.04241021  0.83061711  0.34344820  1
  H  H3  4  0.05174636  0.97509171  0.22078466  1
  H  H4  4  0.08294016  0.55566905  0.01369826  1
  H  H5  4  0.18314798  0.63628413  0.17358467  1
  C  C6  4  -0.13237710  0.71617457  0.09352845  1
  C  C7  4  -0.07150324  0.81014266  0.01369959  1
  C  C8  4  -0.03045557  0.79394803  0.25781012  1
  C  C9  4  0.03065899  0.88853393  0.17721276  1
  C  C10  4  0.04256569  0.63452203  0.05347132  1
  C  C11  4  0.10903232  0.68756144  0.15992147  1
  N  N12  4  -0.22564997  0.76599827  0.27382695  1
  N  N13  4  -0.13218433  0.76421711  0.20796554  1
  N  N14  4  -0.08783717  0.50211624  0.15315952  1
  N  N15  4  -0.06658674  0.60335727  0.08276047  1
  N  N16  4  -0.03689003  0.91495449  0.08117293  1
  N  N17  4  -0.03257582  1.03507087  0.03032563  1
  N  N18  4  0.01648867  0.73169063  -0.02830440  1
  N  N19  4  0.04044665  0.68678778  0.25878010  1
  N  N20  4  0.06302522  0.62004749  0.35802226  1
  N  N21  4  0.09742386  0.78449468  -0.09299986  1
  N  N22  4  0.12640115  0.82032560  0.14244742  1
  N  N23  4  0.22912447  0.87134945  0.16271430  1
  O  O24  4  -0.21460676  0.79959318  0.37308361  1
  O  O25  4  -0.18055083  0.49393957  0.18559512  1
  O  O26  4  -0.09228995  1.05137819  -0.05083393  1
  O  O27  4  -0.01368523  0.43229125  0.17461887  1
  O  O28  4  -0.00009395  0.63620688  0.43628336  1
  O  O29  4  0.02706586  1.11025593  0.07405326  1
  O  O30  4  0.07628312  0.88400378  -0.13922852  1
  O  O31  4  0.13949151  0.55009849  0.35518008  1
  O  O32  4  0.18066363  0.72541367  -0.09843732  1
  O  O33  4  0.19196563  0.26307250  0.22638733  1
  O  O34  4  0.19646242  0.80062969  0.64789401  1
  O  O35  4  0.23181892  0.98238597  0.18614098  1
