###############################################################################################
#
# CIF file generated by modified CIFWriter class 
# in pymatgen (v2025.03.10) https://pymatgen.org/
#
###############################################################################################
data_PBE+MBD_tight_dbcf33fd925d01b
_symmetry_space_group_name_H-M   Cc
_cell_length_a   8.53806125
_cell_length_b   14.99138828
_cell_length_c   13.09553621
_cell_angle_alpha   90.00000000
_cell_angle_beta   99.30936748
_cell_angle_gamma   90.00000000
_symmetry_Int_Tables_number   9
_chemical_formula_moiety   'C6 H6 N12 O12'
_chemical_formula_sum   'H24 C24 N48 O48'
_cell_volume   1654.11778764
_cell_formula_units_Z   4
loop_
 _symmetry_equiv_pos_site_id
 _symmetry_equiv_pos_as_xyz
  1  'x, y, z'
  2  'x, -y, z+1/2'
  3  'x+1/2, y+1/2, z'
  4  'x+1/2, -y+1/2, z+1/2'
loop_
 _atom_site_type_symbol
 _atom_site_label
 _atom_site_symmetry_multiplicity
 _atom_site_fract_x
 _atom_site_fract_y
 _atom_site_fract_z
 _atom_site_occupancy
  H  H0  4  0.05329247  0.48382956  0.44930798  1
  H  H1  4  0.21230847  0.23135093  0.49646702  1
  H  H2  4  0.28556731  0.50549773  0.25290217  1
  H  H3  4  0.30402094  0.47557305  0.39064296  1
  H  H4  4  0.34704853  0.76310635  0.17033198  1
  H  H5  4  0.53669757  0.49014837  0.69268528  1
  C  C6  4  0.14217199  0.44835541  0.50402140  1
  C  C7  4  0.23879621  0.69980246  0.02088665  1
  C  C8  4  0.27971974  0.45482688  0.68294981  1
  C  C9  4  0.30783802  0.44224697  0.46479127  1
  C  C10  4  0.32999155  0.30415797  0.63810713  1
  C  C11  4  0.44548149  0.45125579  0.64377814  1
  N  N12  4  -0.04370966  0.67438511  -0.05631660  1
  N  N13  4  0.03966560  0.54777822  0.62793538  1
  N  N14  4  0.09526918  0.35484641  0.51340412  1
  N  N15  4  0.16541945  0.49413158  0.60198738  1
  N  N16  4  0.16553699  0.33093364  0.77677870  1
  N  N17  4  0.24704978  0.63849525  0.19989104  1
  N  N18  4  0.33246179  0.31209744  0.35146049  1
  N  N19  4  0.33600201  0.34610467  0.45514873  1
  N  N20  4  0.42709914  0.48360260  0.53902607  1
  N  N21  4  0.47849604  0.35503879  0.64955421  1
  N  N22  4  0.53087128  0.54793398  0.50798278  1
  N  N23  4  0.61369681  0.32155329  0.61566959  1
  O  O24  4  -0.13816856  0.61639666  -0.08952613  1
  O  O25  4  -0.06278543  0.43132157  0.05617578  1
  O  O26  4  -0.05480610  0.75484010  -0.07043568  1
  O  O27  4  0.05048955  0.57022948  0.71871859  1
  O  O28  4  0.12647646  0.38832588  0.83487127  1
  O  O29  4  0.13977525  0.25092256  0.77745966  1
  O  O30  4  0.29629101  0.23398579  0.33783172  1
  O  O31  4  0.37433587  0.36456140  0.28989468  1
  O  O32  4  0.52458294  0.44233176  -0.08547675  1
  O  O33  4  0.61346435  0.75834471  0.09647739  1
  O  O34  4  0.61350353  0.58837058  0.57756013  1
  O  O35  4  0.72003488  0.37581226  0.61137288  1
