###############################################################################################
#
# CIF file generated by modified CIFWriter class 
# in pymatgen (v2025.03.10) https://pymatgen.org/
#
###############################################################################################
data_PBE+MBD_tight_dc661c95aa10c29
_symmetry_space_group_name_H-M   P2_12_12_1
_cell_length_a   9.29478036
_cell_length_b   14.62814161
_cell_length_c   11.72927102
_cell_angle_alpha   90.00000000
_cell_angle_beta   90.00000000
_cell_angle_gamma   90.00000000
_symmetry_Int_Tables_number   19
_chemical_formula_moiety   'C6 H6 N12 O12'
_chemical_formula_sum   'H24 C24 N48 O48'
_cell_volume   1594.77459626
_cell_formula_units_Z   4
loop_
 _symmetry_equiv_pos_site_id
 _symmetry_equiv_pos_as_xyz
  1  'x, y, z'
  2  '-x, y+1/2, -z+1/2'
  3  'x+1/2, -y+1/2, -z'
  4  '-x+1/2, -y, z+1/2'
loop_
 _atom_site_type_symbol
 _atom_site_label
 _atom_site_symmetry_multiplicity
 _atom_site_fract_x
 _atom_site_fract_y
 _atom_site_fract_z
 _atom_site_occupancy
  H  H0  4  -0.22219179  0.39489951  0.36162169  1
  H  H1  4  -0.14533938  0.55605733  0.63351069  1
  H  H2  4  -0.03887534  0.43992955  0.23108938  1
  H  H3  4  -0.01866177  0.41279597  0.66449034  1
  H  H4  4  0.17579503  0.63853909  0.40990917  1
  H  H5  4  0.20012711  0.50677384  0.93642576  1
  C  C6  4  -0.13508749  0.43103123  0.40503062  1
  C  C7  4  -0.08719040  0.53301785  0.55781353  1
  C  C8  4  -0.01207130  0.46144705  0.31768772  1
  C  C9  4  -0.00569193  0.43881897  0.57766586  1
  C  C10  4  0.10213450  0.58161336  0.42551876  1
  C  C11  4  0.18281393  0.48705355  0.44326831  1
  N  N12  4  -0.18689890  0.51237759  0.46433624  1
  N  N13  4  -0.15783470  0.30273233  0.54165148  1
  N  N14  4  -0.07820489  0.62153007  0.27570980  1
  N  N15  4  -0.07213452  0.37600572  0.49534064  1
  N  N16  4  0.00818960  0.69129583  0.57022626  1
  N  N17  4  0.01527824  0.60116079  0.52401510  1
  N  N18  4  0.01630497  0.55948675  0.32367102  1
  N  N19  4  0.12766379  0.42638241  0.35221132  1
  N  N20  4  0.14489156  0.45216102  0.55378757  1
  N  N21  4  0.16355380  0.97244510  0.52265862  1
  N  N22  4  0.22619076  0.40964330  0.25885968  1
  N  N23  4  0.24821229  0.40272227  0.61712512  1
  O  O24  4  -0.17284633  0.58839490  0.21451293  1
  O  O25  4  -0.11479056  0.27083535  0.63098856  1
  O  O26  4  -0.08762251  0.70493579  0.63942098  1
  O  O27  4  -0.05676108  0.70230128  0.29633097  1
  O  O28  4  0.08661300  1.00456634  0.59727813  1
  O  O29  4  0.10093055  0.74414525  0.53796032  1
  O  O30  4  0.12744896  0.92486163  0.44206790  1
  O  O31  4  0.12945767  0.59850544  1.07882958  1
  O  O32  4  0.14609324  0.58493444  0.78162969  1
  O  O33  4  0.17164349  0.38816787  0.16811883  1
  O  O34  4  0.20606076  0.36940815  0.70690105  1
  O  O35  4  0.24013124  1.22215422  0.51647006  1
