###############################################################################################
#
# CIF file generated by modified CIFWriter class 
# in pymatgen (v2025.03.10) https://pymatgen.org/
#
###############################################################################################
data_PBE+MBD_tight_e35265d82c63468
_symmetry_space_group_name_H-M   P2_1/c
_cell_length_a   10.92837114
_cell_length_b   12.78914040
_cell_length_c   11.38123739
_cell_angle_alpha   90.00000000
_cell_angle_beta   93.78598995
_cell_angle_gamma   90.00000000
_symmetry_Int_Tables_number   14
_chemical_formula_moiety   'C6 H6 N12 O12'
_chemical_formula_sum   'H24 C24 N48 O48'
_cell_volume   1587.22118645
_cell_formula_units_Z   4
loop_
 _symmetry_equiv_pos_site_id
 _symmetry_equiv_pos_as_xyz
  1  'x, y, z'
  2  '-x, -y, -z'
  3  '-x, y+1/2, -z+1/2'
  4  'x, -y+1/2, z+1/2'
loop_
 _atom_site_type_symbol
 _atom_site_label
 _atom_site_symmetry_multiplicity
 _atom_site_fract_x
 _atom_site_fract_y
 _atom_site_fract_z
 _atom_site_occupancy
  H  H0  4  0.01643266  0.00202546  0.64164198  1
  H  H1  4  0.14630237  0.63972958  0.08921621  1
  H  H2  4  0.18930053  0.39030810  0.44298260  1
  H  H3  4  0.26108645  0.28573688  0.28238786  1
  H  H4  4  0.41933268  -0.13265856  0.85323499  1
  H  H5  4  0.48882415  0.52957842  0.19340477  1
  C  C6  4  0.10696027  0.00749928  0.68816386  1
  C  C7  4  0.19442651  0.58752491  0.15264177  1
  C  C8  4  0.21093292  0.06183111  0.86709644  1
  C  C9  4  0.25780285  0.36950212  0.26293378  1
  C  C10  4  0.34680491  -0.08251732  0.81416962  1
  C  C11  4  0.39294311  0.51419405  0.20960840  1
  N  N12  4  -0.01661354  0.44919528  0.35418614  1
  N  N13  4  0.09963307  0.49069082  0.31599400  1
  N  N14  4  0.12646227  0.32104012  0.08243482  1
  N  N15  4  0.16728767  0.39358634  0.16711556  1
  N  N16  4  0.17517334  0.70892037  0.31879778  1
  N  N17  4  0.24791361  -0.14360184  0.75432625  1
  N  N18  4  0.30223660  -0.01475384  0.90284858  1
  N  N19  4  0.30499913  0.49495276  0.00362920  1
  N  N20  4  0.30953203  -0.04951844  0.61028695  1
  N  N21  4  0.35299407  -0.01999914  1.01981776  1
  N  N22  4  0.37858964  0.40507851  0.23773756  1
  N  N23  4  0.47372904  0.16733671  0.72276647  1
  O  O24  4  -0.10691702  0.02766505  0.79205792  1
  O  O25  4  -0.01059941  0.40096995  0.44670133  1
  O  O26  4  0.04252029  0.15128261  0.51286603  1
  O  O27  4  0.07643552  0.73497269  0.26933590  1
  O  O28  4  0.18221277  0.23763613  0.08456083  1
  O  O29  4  0.21497013  -0.01120007  0.43640473  1
  O  O30  4  0.21851905  -0.23476854  0.91625261  1
  O  O31  4  0.31968827  0.04627753  1.08767982  1
  O  O32  4  0.39227226  0.06261785  0.48764587  1
  O  O33  4  0.42770813  0.59028214  0.54120102  1
  O  O34  4  0.42988862  0.86738925  0.30848175  1
  O  O35  4  0.45014478  0.24133904  0.24603539  1
