###############################################################################################
#
# CIF file generated by modified CIFWriter class 
# in pymatgen (v2025.03.10) https://pymatgen.org/
#
###############################################################################################
data_PBE+MBD_tight_e3cab844e9ab181
_symmetry_space_group_name_H-M   Cc
_cell_length_a   12.87092639
_cell_length_b   10.02601174
_cell_length_c   12.89776780
_cell_angle_alpha   90.00000000
_cell_angle_beta   96.14559803
_cell_angle_gamma   90.00000000
_symmetry_Int_Tables_number   9
_chemical_formula_moiety   'C6 H6 N12 O12'
_chemical_formula_sum   'H24 C24 N48 O48'
_cell_volume   1654.81521706
_cell_formula_units_Z   4
loop_
 _symmetry_equiv_pos_site_id
 _symmetry_equiv_pos_as_xyz
  1  'x, y, z'
  2  'x, -y, z+1/2'
  3  'x+1/2, y+1/2, z'
  4  'x+1/2, -y+1/2, z+1/2'
loop_
 _atom_site_type_symbol
 _atom_site_label
 _atom_site_symmetry_multiplicity
 _atom_site_fract_x
 _atom_site_fract_y
 _atom_site_fract_z
 _atom_site_occupancy
  H  H0  4  -0.10653023  0.17790069  0.47049643  1
  H  H1  4  0.00833462  0.41811059  0.71935282  1
  H  H2  4  0.03319599  0.74349809  -0.12544394  1
  H  H3  4  0.15223587  -0.02301251  0.58556005  1
  H  H4  4  0.15503328  0.48428925  0.62815713  1
  H  H5  4  0.21633239  0.10749152  0.73100299  1
  C  C6  4  -0.03472685  0.19886908  0.52120187  1
  C  C7  4  0.03322287  0.66067231  0.16917388  1
  C  C8  4  0.05745926  0.75318851  -0.04197920  1
  C  C9  4  0.11865755  0.07726683  0.57977777  1
  C  C10  4  0.12800217  0.61700252  0.10864791  1
  C  C11  4  0.16257997  0.83409341  0.17779108  1
  N  N12  4  -0.15607143  0.33890599  0.61288113  1
  N  N13  4  -0.05315576  0.30100972  0.59518230  1
  N  N14  4  -0.04674936  -0.04769296  0.54080380  1
  N  N15  4  0.00495291  0.92443853  0.07419818  1
  N  N16  4  0.02164312  0.15574354  0.79567588  1
  N  N17  4  0.07988985  0.22743732  0.73038649  1
  N  N18  4  0.09697784  0.62637538  -0.00131924  1
  N  N19  4  0.11059896  0.51915548  -0.06871691  1
  N  N20  4  0.13296830  0.85857167  -0.01875246  1
  N  N21  4  0.21261360  0.71429984  0.14190350  1
  N  N22  4  0.22151132  0.86847375  -0.07089178  1
  N  N23  4  0.29523122  0.33816893  0.71663561  1
  O  O24  4  -0.22722091  0.71783665  0.06033347  1
  O  O25  4  -0.16260246  0.57177529  0.17626413  1
  O  O26  4  -0.13543104  -0.03656419  0.49804265  1
  O  O27  4  -0.05682147  0.78959971  0.32055815  1
  O  O28  4  0.00147373  1.14951385  0.06523236  1
  O  O29  4  0.05670279  0.04563691  0.82383209  1
  O  O30  4  0.08614861  0.45910599  0.33815580  1
  O  O31  4  0.14352518  0.58486600  0.47128582  1
  O  O32  4  0.22213747  0.79780369  -0.14820269  1
  O  O33  4  0.28829181  0.94852963  -0.03551604  1
  O  O34  4  0.31110086  0.54228539  0.21301272  1
  O  O35  4  0.34413514  0.25569350  0.77210096  1
