###############################################################################################
#
# CIF file generated by modified CIFWriter class 
# in pymatgen (v2025.03.10) https://pymatgen.org/
#
###############################################################################################
data_PBE+MBD_tight_e3de97a2e6c681
_symmetry_space_group_name_H-M   P2_1/c
_cell_length_a   7.92577244
_cell_length_b   13.39917489
_cell_length_c   15.66378596
_cell_angle_alpha   90.00000000
_cell_angle_beta   76.18554739
_cell_angle_gamma   90.00000000
_symmetry_Int_Tables_number   14
_chemical_formula_moiety   'C6 H6 N12 O12'
_chemical_formula_sum   'H24 C24 N48 O48'
_cell_volume   1615.35788939
_cell_formula_units_Z   4
loop_
 _symmetry_equiv_pos_site_id
 _symmetry_equiv_pos_as_xyz
  1  'x, y, z'
  2  '-x, -y, -z'
  3  '-x, y+1/2, -z+1/2'
  4  'x, -y+1/2, z+1/2'
loop_
 _atom_site_type_symbol
 _atom_site_label
 _atom_site_symmetry_multiplicity
 _atom_site_fract_x
 _atom_site_fract_y
 _atom_site_fract_z
 _atom_site_occupancy
  H  H0  4  0.08464954  0.90213430  0.16888197  1
  H  H1  4  0.11595260  0.87095009  0.54067252  1
  H  H2  4  0.37970887  0.56130853  0.59207003  1
  H  H3  4  0.40344205  0.74660360  0.28694444  1
  H  H4  4  0.41517978  0.66199514  -0.03367844  1
  H  H5  4  0.42129967  0.58944661  0.21613558  1
  C  C6  4  0.16606350  0.83510070  0.15599410  1
  C  C7  4  0.18385017  0.67306673  0.08081741  1
  C  C8  4  0.36031257  0.64100901  0.60583348  1
  C  C9  4  0.36321279  0.75242268  0.22507874  1
  C  C10  4  0.37508567  0.64637247  0.17717716  1
  C  C11  4  0.37874520  0.69591240  0.03162328  1
  N  N12  4  -0.06514504  0.71268726  0.58225855  1
  N  N13  4  0.06775216  0.59064942  0.22418474  1
  N  N14  4  0.09195522  0.73457543  0.60548876  1
  N  N15  4  0.10000035  0.83022553  0.32047305  1
  N  N16  4  0.18552226  0.78865512  0.23805447  1
  N  N17  4  0.21013828  0.88250178  0.65736207  1
  N  N18  4  0.39895323  0.42489658  0.94357028  1
  N  N19  4  0.40036673  0.69670050  0.52437542  1
  N  N20  4  0.45321004  0.33772647  0.54225999  1
  N  N21  4  0.46514805  0.09356905  0.78955348  1
  N  N22  4  0.46557348  0.67306379  0.66643592  1
  N  N23  4  0.48305152  0.84620766  0.58895145  1
  O  O24  4  -0.12458785  0.62931401  0.60226001  1
  O  O25  4  -0.12444772  0.77803363  0.54356297  1
  O  O26  4  -0.07306896  0.58840031  0.20452762  1
  O  O27  4  -0.03089258  0.62180567  0.82151894  1
  O  O28  4  0.09815681  0.56926081  0.29529514  1
  O  O29  4  0.16257803  0.80884962  0.38250912  1
  O  O30  4  0.35019215  0.06885082  0.52359751  1
  O  O31  4  0.35143161  0.02465539  0.38874383  1
  O  O32  4  0.38482520  0.41470559  0.52603822  1
  O  O33  4  0.41025031  0.11849865  0.72653516  1
  O  O34  4  0.41630072  0.28793669  0.60929536  1
  O  O35  4  0.46096430  0.48954868  0.32231845  1
