###############################################################################################
#
# CIF file generated by modified CIFWriter class 
# in pymatgen (v2025.03.10) https://pymatgen.org/
#
###############################################################################################
data_PBE+MBD_tight_e60df9f8231d99
_symmetry_space_group_name_H-M   P4_1
_cell_length_a   8.08510778
_cell_length_b   8.08510778
_cell_length_c   26.77757415
_cell_angle_alpha   90.00000000
_cell_angle_beta   90.00000000
_cell_angle_gamma   90.00000000
_symmetry_Int_Tables_number   76
_chemical_formula_moiety   'C6 H6 N12 O12'
_chemical_formula_sum   'H24 C24 N48 O48'
_cell_volume   1750.42238060
_cell_formula_units_Z   4
loop_
 _symmetry_equiv_pos_site_id
 _symmetry_equiv_pos_as_xyz
  1  'x, y, z'
  2  '-y, x, z+1/4'
  3  '-x, -y, z+1/2'
  4  'y, -x, z+3/4'
loop_
 _atom_site_type_symbol
 _atom_site_label
 _atom_site_symmetry_multiplicity
 _atom_site_fract_x
 _atom_site_fract_y
 _atom_site_fract_z
 _atom_site_occupancy
  H  H0  4  0.02707038  0.48316966  0.06899632  1
  H  H1  4  0.08260154  0.20665862  0.03881217  1
  H  H2  4  0.30317505  0.58363246  0.89927787  1
  H  H3  4  0.34328552  0.43864246  0.24179129  1
  H  H4  4  0.34804830  0.59599413  0.60385713  1
  H  H5  4  0.38005115  0.50536413  0.71163132  1
  C  C6  4  0.15919840  0.45923254  0.06462795  1
  C  C7  4  0.19575283  0.27792515  0.04465413  1
  C  C8  4  0.34224573  0.61726893  0.86165787  1
  C  C9  4  0.38072303  0.56171912  0.74876198  1
  C  C10  4  0.40303839  0.56212693  0.01889648  1
  C  C11  4  0.40905738  0.46059222  0.83133422  1
  N  N12  4  0.05130925  0.64190228  0.83476842  1
  N  N13  4  0.12439156  0.65686062  -0.00438909  1
  N  N14  4  0.18082358  0.75204017  0.70762784  1
  N  N15  4  0.21152268  0.70366965  0.83544445  1
  N  N16  4  0.22974408  0.58155546  0.03125784  1
  N  N17  4  0.24627050  0.45917934  0.11237015  1
  N  N18  4  0.25529401  0.60229872  0.14141437  1
  N  N19  4  0.26908194  0.28346962  0.76870887  1
  N  N20  4  0.28385580  0.29263096  -0.00213943  1
  N  N21  4  0.30689339  0.64093463  0.31289102  1
  N  N22  4  0.31120604  0.44601506  0.78550653  1
  N  N23  4  0.42417207  0.50325509  0.31389442  1
  O  O24  4  -0.04245129  0.70650118  0.80452088  1
  O  O25  4  -0.02405647  0.64218281  0.00240881  1
  O  O26  4  0.01993571  0.53190163  0.86488945  1
  O  O27  4  0.10285969  0.87957931  0.71095953  1
  O  O28  4  0.14910321  0.70618471  0.13418385  1
  O  O29  4  0.17940463  0.74362965  0.55186247  1
  O  O30  4  0.18169212  0.65206222  0.67313689  1
  O  O31  4  0.19334775  0.73216511  -0.03827177  1
  O  O32  4  0.19587916  0.63011535  0.28249861  1
  O  O33  4  0.24250710  0.26685142  0.72429079  1
  O  O34  4  0.25352165  0.32964896  0.59457041  1
  O  O35  4  0.36848670  0.60504526  0.17230703  1
