###############################################################################################
#
# CIF file generated by modified CIFWriter class 
# in pymatgen (v2025.03.10) https://pymatgen.org/
#
###############################################################################################
data_PBE+MBD_tight_e67e15d2256cd09
_symmetry_space_group_name_H-M   P4_1
_cell_length_a   14.71128688
_cell_length_b   14.71128688
_cell_length_c   7.97766315
_cell_angle_alpha   90.00000000
_cell_angle_beta   90.00000000
_cell_angle_gamma   90.00000000
_symmetry_Int_Tables_number   76
_chemical_formula_moiety   'C6 H6 N12 O12'
_chemical_formula_sum   'H24 C24 N48 O48'
_cell_volume   1726.54150662
_cell_formula_units_Z   4
loop_
 _symmetry_equiv_pos_site_id
 _symmetry_equiv_pos_as_xyz
  1  'x, y, z'
  2  '-y, x, z+1/4'
  3  '-x, -y, z+1/2'
  4  'y, -x, z+3/4'
loop_
 _atom_site_type_symbol
 _atom_site_label
 _atom_site_symmetry_multiplicity
 _atom_site_fract_x
 _atom_site_fract_y
 _atom_site_fract_z
 _atom_site_occupancy
  H  H0  4  0.05745538  0.83154588  0.96539632  1
  H  H1  4  0.07965268  0.55889669  0.99600461  1
  H  H2  4  0.13121272  0.51958328  0.72403202  1
  H  H3  4  0.15361993  0.76677108  0.49071086  1
  H  H4  4  0.20118781  0.20666260  0.32818592  1
  H  H5  4  0.27509870  0.29942075  -0.14603520  1
  C  C6  4  0.09182533  0.77718543  0.89702101  1
  C  C7  4  0.10746431  0.61832498  0.93162340  1
  C  C8  4  0.14328568  0.59161377  0.74908450  1
  C  C9  4  0.14829397  0.73865779  0.61687410  1
  C  C10  4  0.18942451  0.75540030  0.97153762  1
  C  C11  4  0.24392016  0.71290326  0.69239634  1
  N  N12  4  -0.03408963  0.69153994  1.03395408  1
  N  N13  4  0.01815317  0.63583490  0.55657207  1
  N  N14  4  0.03604022  0.86101684  0.65101442  1
  N  N15  4  0.04066339  0.69148171  0.91466842  1
  N  N16  4  0.10346699  0.80375994  0.72472163  1
  N  N17  4  0.10433709  0.64934010  0.61843404  1
  N  N18  4  0.18144137  0.66012747  1.02634479  1
  N  N19  4  0.18675997  0.64245763  1.20110269  1
  N  N20  4  0.21803578  0.34925531  0.14466143  1
  N  N21  4  0.23364555  0.25699806  0.09187107  1
  N  N22  4  0.23861737  0.61474083  0.73190256  1
  N  N23  4  0.29133550  0.55394358  0.62259180  1
  O  O24  4  -0.06926259  0.76532086  1.06075982  1
  O  O25  4  -0.05673465  0.61754475  1.08721398  1
  O  O26  4  -0.02625425  0.88372886  0.74389819  1
  O  O27  4  -0.02028601  0.56577449  0.60099716  1
  O  O28  4  -0.01137927  0.69445570  0.46063631  1
  O  O29  4  0.04884857  0.88370592  0.50630627  1
  O  O30  4  0.15000699  0.57348553  1.25215082  1
  O  O31  4  0.18673378  0.35846929  0.28503551  1
  O  O32  4  0.23205375  0.69703346  1.28261322  1
  O  O33  4  0.23449040  0.40791735  0.04095970  1
  O  O34  4  0.26414460  0.47604353  0.61447909  1
  O  O35  4  0.35899630  0.58730198  0.56051590  1
