###############################################################################################
#
# CIF file generated by modified CIFWriter class 
# in pymatgen (v2025.03.10) https://pymatgen.org/
#
###############################################################################################
data_PBE+MBD_tight_e787243d1fdddf7
_symmetry_space_group_name_H-M   Pna2_1
_cell_length_a   13.22279401
_cell_length_b   9.31209655
_cell_length_c   12.80902481
_cell_angle_alpha   90.00000000
_cell_angle_beta   90.00000000
_cell_angle_gamma   90.00000000
_symmetry_Int_Tables_number   33
_chemical_formula_moiety   'C6 H6 N12 O12'
_chemical_formula_sum   'H24 C24 N48 O48'
_cell_volume   1577.20000367
_cell_formula_units_Z   4
loop_
 _symmetry_equiv_pos_site_id
 _symmetry_equiv_pos_as_xyz
  1  'x, y, z'
  2  '-x, -y, z+1/2'
  3  '-x+1/2, y+1/2, z+1/2'
  4  'x+1/2, -y+1/2, z'
loop_
 _atom_site_type_symbol
 _atom_site_label
 _atom_site_symmetry_multiplicity
 _atom_site_fract_x
 _atom_site_fract_y
 _atom_site_fract_z
 _atom_site_occupancy
  H  H0  4  0.03332338  1.19983084  0.11466904  1
  H  H1  4  0.09334469  0.84716998  -0.05731240  1
  H  H2  4  0.10343513  1.13728334  0.28178654  1
  H  H3  4  0.14713654  0.40139471  0.70335987  1
  H  H4  4  0.21458534  0.73357046  0.22984450  1
  H  H5  4  0.23086699  1.01470521  -0.08435381  1
  C  C6  4  0.08692646  1.11095126  0.10825250  1
  C  C7  4  0.11931788  0.89540268  0.01574740  1
  C  C8  4  0.13333875  1.06850102  0.22003270  1
  C  C9  4  0.19147904  0.82825952  0.18575168  1
  C  C10  4  0.20975039  1.00539145  -0.00202578  1
  C  C11  4  0.21803212  0.43777917  0.66812401  1
  N  N12  4  -0.05446135  0.99442843  0.01169545  1
  N  N13  4  0.02692012  0.86190050  0.27376389  1
  N  N14  4  0.04022580  0.98286607  0.06394157  1
  N  N15  4  0.10647071  0.45123609  0.51093125  1
  N  N16  4  0.11944925  0.91666237  0.24340039  1
  N  N17  4  0.14905655  0.78289824  0.08697163  1
  N  N18  4  0.15470133  1.25633842  -0.03710114  1
  N  N19  4  0.17056731  1.14301672  0.03794613  1
  N  N20  4  0.18272271  0.65014827  0.04439101  1
  N  N21  4  0.20018310  0.69052129  0.73053672  1
  N  N22  4  0.20485687  0.45608858  0.55707315  1
  N  N23  4  0.24288106  1.06656176  0.21932075  1
  O  O24  4  -0.10085195  1.10652326  0.02230523  1
  O  O25  4  -0.08126033  0.88618438  -0.03535325  1
  O  O26  4  -0.03738124  0.95110142  0.30069134  1
  O  O27  4  0.01852498  0.73120878  0.27344319  1
  O  O28  4  0.03842977  0.41314560  0.56891781  1
  O  O29  4  0.08822448  1.34187580  -0.01721921  1
  O  O30  4  0.10212353  0.48063507  0.41837977  1
  O  O31  4  0.10927781  0.67791360  0.71331616  1
  O  O32  4  0.16907969  0.63350517  -0.04898154  1
  O  O33  4  0.21393437  1.25742700  -0.11031932  1
  O  O34  4  0.21998059  0.56548604  0.10632535  1
  O  O35  4  0.24599229  0.79835105  0.75880632  1
