###############################################################################################
#
# CIF file generated by modified CIFWriter class 
# in pymatgen (v2025.03.10) https://pymatgen.org/
#
###############################################################################################
data_PBE+MBD_tight_e8800fd52929b2a
_symmetry_space_group_name_H-M   P2_1/c
_cell_length_a   14.87828107
_cell_length_b   13.45474307
_cell_length_c   8.01869140
_cell_angle_alpha   90.00000000
_cell_angle_beta   82.88429145
_cell_angle_gamma   90.00000000
_symmetry_Int_Tables_number   14
_chemical_formula_moiety   'C6 H6 N12 O12'
_chemical_formula_sum   'H24 C24 N48 O48'
_cell_volume   1592.84600179
_cell_formula_units_Z   4
loop_
 _symmetry_equiv_pos_site_id
 _symmetry_equiv_pos_as_xyz
  1  'x, y, z'
  2  '-x, -y, -z'
  3  '-x+1/2, y+1/2, -z+1/2'
  4  'x+1/2, -y+1/2, z+1/2'
loop_
 _atom_site_type_symbol
 _atom_site_label
 _atom_site_symmetry_multiplicity
 _atom_site_fract_x
 _atom_site_fract_y
 _atom_site_fract_z
 _atom_site_occupancy
  H  H0  4  0.06875810  0.58050766  0.15482558  1
  H  H1  4  0.08984290  0.41036959  0.06435603  1
  H  H2  4  0.13557797  -0.12468642  0.46702665  1
  H  H3  4  0.16782274  -0.07472759  0.74285230  1
  H  H4  4  0.17433489  0.16544954  0.29993881  1
  H  H5  4  0.20740598  0.21599736  0.57546589  1
  C  C6  4  0.13920737  0.56587995  0.10514873  1
  C  C7  4  0.15313120  0.45246420  0.04279828  1
  C  C8  4  0.18543651  -0.06470208  0.46171931  1
  C  C9  4  0.20649419  -0.03165862  0.64298530  1
  C  C10  4  0.20907817  0.10732770  0.36256425  1
  C  C11  4  0.22964912  0.14006953  0.54433168  1
  N  N12  4  0.06580579  0.02100244  0.32644787  1
  N  N13  4  0.11833832  0.71009863  -0.08240395  1
  N  N14  4  0.13837075  0.10779616  0.82050730  1
  N  N15  4  0.14597540  0.47443021  -0.25858818  1
  N  N16  4  0.15383864  0.01937317  0.37390805  1
  N  N17  4  0.16928028  0.64778068  0.36858677  1
  N  N18  4  0.17177169  0.63116959  -0.03338141  1
  N  N19  4  0.18562461  0.07181835  0.66546792  1
  N  N20  4  0.19521032  0.44628344  -0.13088519  1
  N  N21  4  0.20113170  0.58534795  0.22869754  1
  N  N22  4  0.21285025  0.35737023  0.26967355  1
  N  N23  4  0.22551218  0.40392060  0.11651185  1
  O  O24  4  0.02470753  -0.05824622  0.33970009  1
  O  O25  4  0.03729537  0.70623652  -0.03417785  1
  O  O26  4  0.03898937  0.10039872  0.27847896  1
  O  O27  4  0.06389500  0.48544152  -0.21938945  1
  O  O28  4  0.08757617  0.65423979  0.40424524  1
  O  O29  4  0.11244518  0.04485118  0.92411594  1
  O  O30  4  0.12746020  0.19756105  0.82858043  1
  O  O31  4  0.13439446  0.34335952  0.33262492  1
  O  O32  4  0.15906890  0.77164445  -0.17556500  1
  O  O33  4  0.18885086  0.48407925  -0.39804012  1
  O  O34  4  0.21747056  -0.16881357  0.17341303  1
  O  O35  4  0.22835101  0.68429276  0.44291470  1
