###############################################################################################
#
# CIF file generated by modified CIFWriter class 
# in pymatgen (v2025.03.10) https://pymatgen.org/
#
###############################################################################################
data_PBE+MBD_tight_ea403936c559ad
_symmetry_space_group_name_H-M   P2_1/c
_cell_length_a   7.86309471
_cell_length_b   11.74894517
_cell_length_c   18.41141564
_cell_angle_alpha   90.00000000
_cell_angle_beta   70.33127994
_cell_angle_gamma   90.00000000
_symmetry_Int_Tables_number   14
_chemical_formula_moiety   'C6 H6 N12 O12'
_chemical_formula_sum   'H24 C24 N48 O48'
_cell_volume   1601.66292893
_cell_formula_units_Z   4
loop_
 _symmetry_equiv_pos_site_id
 _symmetry_equiv_pos_as_xyz
  1  'x, y, z'
  2  '-x, -y, -z'
  3  '-x, y+1/2, -z+1/2'
  4  'x, -y+1/2, z+1/2'
loop_
 _atom_site_type_symbol
 _atom_site_label
 _atom_site_symmetry_multiplicity
 _atom_site_fract_x
 _atom_site_fract_y
 _atom_site_fract_z
 _atom_site_occupancy
  H  H0  4  0.25324912  0.44849025  0.20451977  1
  H  H1  4  0.26364152  0.74211300  0.98859635  1
  H  H2  4  0.29739642  0.37910355  0.77376047  1
  H  H3  4  0.40168624  0.47812077  0.65358819  1
  H  H4  4  0.43935956  0.22860521  0.49781149  1
  H  H5  4  0.45719089  0.92579205  0.27847061  1
  C  C6  4  0.31859242  0.13210349  0.68127811  1
  C  C7  4  0.35228825  0.32006507  0.72571941  1
  C  C8  4  0.37384153  0.74649375  0.93332626  1
  C  C9  4  0.42378077  0.11337598  0.14515866  1
  C  C10  4  0.43198979  0.23637140  0.55809119  1
  C  C11  4  0.48926887  0.85452224  0.30957306  1
  N  N12  4  0.05062093  0.25908746  0.72716190  1
  N  N13  4  0.18882048  0.90625520  0.40260011  1
  N  N14  4  0.22362449  0.26997030  0.22614105  1
  N  N15  4  0.24984180  0.59443664  0.37629213  1
  N  N16  4  0.29940933  0.45552449  0.06210134  1
  N  N17  4  0.30111390  0.42199160  0.54054165  1
  N  N18  4  0.33538973  0.14041624  0.60103832  1
  N  N19  4  0.33717397  0.34152779  0.59288036  1
  N  N20  4  0.35454988  0.84471719  0.38453265  1
  N  N21  4  0.38795172  0.85984320  0.89797042  1
  N  N22  4  0.48072438  0.74725116  0.69183494  1
  N  N23  4  0.49875842  0.24784962  0.23400901  1
  O  O24  4  -0.03601138  0.31761316  0.21102689  1
  O  O25  4  0.00238579  0.35709910  0.74608397  1
  O  O26  4  0.06953725  0.87855484  0.46153293  1
  O  O27  4  0.09800518  0.86903970  0.90977250  1
  O  O28  4  0.18644200  0.51775196  0.85781018  1
  O  O29  4  0.23633894  -0.03875160  0.60146433  1
  O  O30  4  0.28045512  -0.02081717  0.06230308  1
  O  O31  4  0.28689891  0.11793540  -0.01818719  1
  O  O32  4  0.29427952  0.51934761  0.32663981  1
  O  O33  4  0.33559230  0.44464308  -0.00758044  1
  O  O34  4  0.40393512  0.66346431  0.67877193  1
  O  O35  4  0.46731118  0.33056643  0.84923146  1
