###############################################################################################
#
# CIF file generated by modified CIFWriter class 
# in pymatgen (v2025.03.10) https://pymatgen.org/
#
###############################################################################################
data_PBE+MBD_tight_eb5040bc1768e56
_symmetry_space_group_name_H-M   P2_12_12_1
_cell_length_a   7.43661101
_cell_length_b   9.32907411
_cell_length_c   23.86976415
_cell_angle_alpha   90.00000000
_cell_angle_beta   90.00000000
_cell_angle_gamma   90.00000000
_symmetry_Int_Tables_number   19
_chemical_formula_moiety   'C6 H6 N12 O12'
_chemical_formula_sum   'H24 C24 N48 O48'
_cell_volume   1656.00535163
_cell_formula_units_Z   4
loop_
 _symmetry_equiv_pos_site_id
 _symmetry_equiv_pos_as_xyz
  1  'x, y, z'
  2  '-x+1/2, -y, z+1/2'
  3  'x+1/2, -y+1/2, -z'
  4  '-x, y+1/2, -z+1/2'
loop_
 _atom_site_type_symbol
 _atom_site_label
 _atom_site_symmetry_multiplicity
 _atom_site_fract_x
 _atom_site_fract_y
 _atom_site_fract_z
 _atom_site_occupancy
  H  H0  4  -0.16224307  -0.07283467  0.31692310  1
  H  H1  4  -0.09228803  0.25185748  0.43048278  1
  H  H2  4  0.02174996  0.94265865  0.87293562  1
  H  H3  4  0.04913284  0.32846515  0.34377793  1
  H  H4  4  0.08608074  -0.22619324  0.33608355  1
  H  H5  4  0.15783421  1.01974025  0.96087381  1
  C  C6  4  -0.05883352  -0.01614940  0.34066312  1
  C  C7  4  -0.01453682  0.16616223  0.41071104  1
  C  C8  4  0.07818540  0.21654303  0.35402925  1
  C  C9  4  0.10818848  -0.11941453  0.35348211  1
  C  C10  4  0.16828370  0.94422472  0.87165388  1
  C  C11  4  0.24223802  0.00535601  0.42868950  1
  N  N12  4  -0.24502754  -0.02486763  0.42607178  1
  N  N13  4  -0.13008747  0.04944290  0.39092299  1
  N  N14  4  -0.00487294  0.11691564  0.31342435  1
  N  N15  4  0.05450712  0.11352413  0.25826698  1
  N  N16  4  0.10372458  1.13371218  0.80025315  1
  N  N17  4  0.10552015  0.13942487  0.50699724  1
  N  N18  4  0.10708275  0.69232074  0.84359571  1
  N  N19  4  0.12478016  0.11764057  0.44847918  1
  N  N20  4  0.13951061  -0.12394731  0.41400048  1
  N  N21  4  0.21082544  -0.25962333  0.43552427  1
  N  N22  4  0.23095737  0.80324920  0.85825683  1
  N  N23  4  0.23133166  1.05118158  0.83110568  1
  O  O24  4  -0.05151272  0.72662405  0.84382409  1
  O  O25  4  -0.04229916  1.07640756  0.79324867  1
  O  O26  4  -0.01055257  0.22407298  0.52165522  1
  O  O27  4  0.01709569  0.00577743  0.23131368  1
  O  O28  4  0.13482275  0.22056502  0.24190139  1
  O  O29  4  0.15322204  -0.36678160  0.41277118  1
  O  O30  4  0.15660227  1.24799916  0.78169600  1
  O  O31  4  0.17248534  0.57564855  0.83372368  1
  O  O32  4  0.18767760  1.25018631  0.97539195  1
  O  O33  4  0.19372663  0.63810430  0.59221686  1
  O  O34  4  0.21171305  0.07488236  0.53697186  1
  O  O35  4  0.22003582  0.46729719  0.52903701  1
