###############################################################################################
#
# CIF file generated by modified CIFWriter class 
# in pymatgen (v2025.03.10) https://pymatgen.org/
#
###############################################################################################
data_PBE+MBD_tight_efea8906e3c8fc2
_symmetry_space_group_name_H-M   P2_12_12_1
_cell_length_a   9.06842390
_cell_length_b   12.47109717
_cell_length_c   13.57423889
_cell_angle_alpha   90.00000000
_cell_angle_beta   90.00000000
_cell_angle_gamma   90.00000000
_symmetry_Int_Tables_number   19
_chemical_formula_moiety   'C6 H6 N12 O12'
_chemical_formula_sum   'H24 C24 N48 O48'
_cell_volume   1535.15405504
_cell_formula_units_Z   4
loop_
 _symmetry_equiv_pos_site_id
 _symmetry_equiv_pos_as_xyz
  1  'x, y, z'
  2  '-x+1/2, -y, z+1/2'
  3  'x+1/2, -y+1/2, -z'
  4  '-x, y+1/2, -z+1/2'
loop_
 _atom_site_type_symbol
 _atom_site_label
 _atom_site_symmetry_multiplicity
 _atom_site_fract_x
 _atom_site_fract_y
 _atom_site_fract_z
 _atom_site_occupancy
  H  H0  4  -0.01974682  0.14010423  0.67752389  1
  H  H1  4  -0.00069255  0.92183767  0.13337941  1
  H  H2  4  0.08284609  0.87546479  0.42235227  1
  H  H3  4  0.14043286  0.28407126  0.62201952  1
  H  H4  4  0.15835324  1.06497966  0.18614329  1
  H  H5  4  0.21095921  0.24585049  0.91891488  1
  C  C6  4  0.09041894  0.89281295  0.17912541  1
  C  C7  4  0.09144092  0.13466238  0.70848628  1
  C  C8  4  0.13639270  0.87510354  0.35026112  1
  C  C9  4  0.19540021  0.98701808  0.21336683  1
  C  C10  4  0.19623463  0.22930404  0.67273778  1
  C  C11  4  0.22473916  0.20543774  0.84805865  1
  N  N12  4  -0.12152943  0.85561332  0.29292595  1
  N  N13  4  0.03115726  0.07389216  0.87921066  1
  N  N14  4  0.03482683  0.84597608  0.27159946  1
  N  N15  4  0.06920131  -0.04965089  0.64047019  1
  N  N16  4  0.09025864  0.15186421  0.81641936  1
  N  N17  4  0.12526438  0.77507564  0.03361408  1
  N  N18  4  0.15216443  1.07318198  0.37553083  1
  N  N19  4  0.15694294  0.03417178  0.67979504  1
  N  N20  4  0.16459445  0.63699694  0.27052184  1
  N  N21  4  0.17600641  0.81547421  0.12538382  1
  N  N22  4  0.18735263  0.98142434  0.32090700  1
  N  N23  4  0.23237499  0.28147955  0.76723787  1
  O  O24  4  -0.20108531  0.87124176  0.22235055  1
  O  O25  4  -0.15598158  0.84078370  0.37869278  1
  O  O26  4  -0.05911369  -0.02817265  0.62271280  1
  O  O27  4  -0.05303241  0.00908968  0.84181834  1
  O  O28  4  0.01889651  0.82224453  -0.00150224  1
  O  O29  4  0.06916887  0.08022886  0.96590339  1
  O  O30  4  0.10706421  0.61907540  0.35088861  1
  O  O31  4  0.11778164  1.05905864  0.46180010  1
  O  O32  4  0.13307339  -0.13478242  0.62527359  1
  O  O33  4  0.14244215  0.58930632  0.19277456  1
  O  O34  4  0.16598973  1.15897656  0.33281957  1
  O  O35  4  0.19331317  0.70041328  -0.00172008  1
