###############################################################################################
#
# CIF file generated by modified CIFWriter class 
# in pymatgen (v2025.03.10) https://pymatgen.org/
#
###############################################################################################
data_PBE+MBD_tight_f21236953194d18
_symmetry_space_group_name_H-M   Pna2_1
_cell_length_a   19.33619060
_cell_length_b   10.90097294
_cell_length_c   8.03541853
_cell_angle_alpha   90.00000000
_cell_angle_beta   90.00000000
_cell_angle_gamma   90.00000000
_symmetry_Int_Tables_number   33
_chemical_formula_moiety   'C6 H6 N12 O12'
_chemical_formula_sum   'H24 C24 N48 O48'
_cell_volume   1693.73195735
_cell_formula_units_Z   4
loop_
 _symmetry_equiv_pos_site_id
 _symmetry_equiv_pos_as_xyz
  1  'x, y, z'
  2  '-x, -y, z+1/2'
  3  '-x+1/2, y+1/2, z+1/2'
  4  'x+1/2, -y+1/2, z'
loop_
 _atom_site_type_symbol
 _atom_site_label
 _atom_site_symmetry_multiplicity
 _atom_site_fract_x
 _atom_site_fract_y
 _atom_site_fract_z
 _atom_site_occupancy
  H  H0  4  0.06930874  0.92848632  0.84230010  1
  H  H1  4  0.08597267  0.96583108  0.33645632  1
  H  H2  4  0.09959164  0.71731375  0.88386914  1
  H  H3  4  0.13775407  0.60015573  0.41751018  1
  H  H4  4  0.19388755  1.02900452  0.45496050  1
  H  H5  4  0.24788829  0.66297448  0.53224439  1
  C  C6  4  0.09600851  0.89129235  0.73389078  1
  C  C7  4  0.10311553  0.90409146  0.43547041  1
  C  C8  4  0.11633979  0.74958195  0.76159237  1
  C  C9  4  0.13417176  0.68772267  0.48346714  1
  C  C10  4  0.17473879  0.94511262  0.51322917  1
  C  C11  4  0.20641520  0.72845725  0.55893683  1
  N  N12  4  -0.01203417  0.88078857  0.57146891  1
  N  N13  4  0.05748796  0.91036432  0.58119901  1
  N  N14  4  0.06909469  0.54823244  0.67363638  1
  N  N15  4  0.08066641  0.74932796  0.21593332  1
  N  N16  4  0.08711632  0.67653359  0.62697551  1
  N  N17  4  0.11106661  0.78169544  0.37047393  1
  N  N18  4  0.15552216  0.96541100  0.68760166  1
  N  N19  4  0.19016391  0.73418302  0.73493948  1
  N  N20  4  0.20467227  0.99952037  0.80399635  1
  N  N21  4  0.21647261  0.36321041  -0.10794928  1
  N  N22  4  0.22521718  0.84843834  0.49655677  1
  N  N23  4  0.23855293  0.71989482  0.85979480  1
  O  O24  4  -0.04208438  0.86426766  0.70421390  1
  O  O25  4  -0.03661406  0.87720002  0.43066314  1
  O  O26  4  0.04793836  0.53554438  0.81464098  1
  O  O27  4  0.05998900  0.83491151  0.13030440  1
  O  O28  4  0.07400989  0.47316108  0.56286871  1
  O  O29  4  0.08056218  0.64067916  0.18079251  1
  O  O30  4  0.17897330  0.27423722  -0.12397539  1
  O  O31  4  0.18764298  0.99233354  0.95098337  1
  O  O32  4  0.20159540  0.20116924  0.31384426  1
  O  O33  4  0.20938877  0.46478082  -0.17115820  1
  O  O34  4  0.21731629  0.72739388  1.00319056  1
  O  O35  4  0.23985462  0.53601989  0.24802368  1
