###############################################################################################
#
# CIF file generated by modified CIFWriter class 
# in pymatgen (v2025.03.10) https://pymatgen.org/
#
###############################################################################################
data_PBE+MBD_tight_f60504ff7523be2
_symmetry_space_group_name_H-M   P4_2
_cell_length_a   14.44750794
_cell_length_b   14.44750794
_cell_length_c   7.66036845
_cell_angle_alpha   90.00000000
_cell_angle_beta   90.00000000
_cell_angle_gamma   90.00000000
_symmetry_Int_Tables_number   77
_chemical_formula_moiety   'C6 H6 N12 O12'
_chemical_formula_sum   'H24 C24 N48 O48'
_cell_volume   1598.95242602
_cell_formula_units_Z   4
loop_
 _symmetry_equiv_pos_site_id
 _symmetry_equiv_pos_as_xyz
  1  'x, y, z'
  2  '-y, x, z+1/2'
  3  '-x, -y, z'
  4  'y, -x, z+1/2'
loop_
 _atom_site_type_symbol
 _atom_site_label
 _atom_site_symmetry_multiplicity
 _atom_site_fract_x
 _atom_site_fract_y
 _atom_site_fract_z
 _atom_site_occupancy
  H  H0  4  0.10601839  0.82970398  0.26951455  1
  H  H1  4  0.15179711  0.23272892  0.97107692  1
  H  H2  4  0.17461400  0.45988939  0.65273532  1
  H  H3  4  0.20378699  0.23896563  0.31159730  1
  H  H4  4  0.20607219  0.64487954  -0.07346946  1
  H  H5  4  0.32713681  0.42736179  0.77195551  1
  C  C6  4  0.17123308  0.80510806  0.21418069  1
  C  C7  4  0.18249468  0.25578002  0.84820665  1
  C  C8  4  0.19109795  0.38601040  0.65312296  1
  C  C9  4  0.20841073  0.25489472  0.45078668  1
  C  C10  4  0.23412365  0.69151103  0.02573157  1
  C  C11  4  0.29128607  0.36501541  0.72838109  1
  N  N12  4  0.03713512  0.32812767  0.74730061  1
  N  N13  4  0.07849150  0.66260762  0.15834340  1
  N  N14  4  0.10843350  0.11614903  0.45452201  1
  N  N15  4  0.13227253  0.33362416  0.77382400  1
  N  N16  4  0.14711276  0.19421778  0.55176629  1
  N  N17  4  0.16513704  0.40973458  0.33593421  1
  N  N18  4  0.16668523  0.70765625  0.16482945  1
  N  N19  4  0.18451142  0.35038964  0.47804802  1
  N  N20  4  0.26924296  0.30410786  0.87501554  1
  N  N21  4  0.27518091  0.66585200  0.49452639  1
  N  N22  4  0.31998949  0.65522848  0.09361517  1
  N  N23  4  0.33868143  0.55911158  0.07952172  1
  O  O24  4  -0.00202920  0.26320986  0.82085190  1
  O  O25  4  0.00262946  0.38908537  0.65830312  1
  O  O26  4  0.02019871  0.69385351  0.25786318  1
  O  O27  4  0.04853317  0.91158897  0.04074925  1
  O  O28  4  0.07260412  0.59591450  0.06197491  1
  O  O29  4  0.09619542  0.12969291  0.29929636  1
  O  O30  4  0.14556875  0.48953921  0.37283348  1
  O  O31  4  0.17077063  0.37518162  0.19066266  1
  O  O32  4  0.21244370  0.68967894  0.59405086  1
  O  O33  4  0.28600440  0.51584515  -0.01600637  1
  O  O34  4  0.31558909  0.59114986  0.49248743  1
  O  O35  4  0.40592770  0.52988096  0.15748394  1
