###############################################################################################
#
# CIF file generated by modified CIFWriter class 
# in pymatgen (v2025.03.10) https://pymatgen.org/
#
###############################################################################################
data_PBE+MBD_tight_fb11823b6d6a640
_symmetry_space_group_name_H-M   Pca2_1
_cell_length_a   13.51971095
_cell_length_b   9.61328047
_cell_length_c   11.98753338
_cell_angle_alpha   90.00000000
_cell_angle_beta   90.00000000
_cell_angle_gamma   90.00000000
_symmetry_Int_Tables_number   29
_chemical_formula_moiety   'C6 H6 N12 O12'
_chemical_formula_sum   'H24 C24 N48 O48'
_cell_volume   1558.00500772
_cell_formula_units_Z   4
loop_
 _symmetry_equiv_pos_site_id
 _symmetry_equiv_pos_as_xyz
  1  'x, y, z'
  2  '-x, -y, z+1/2'
  3  '-x+1/2, y, z+1/2'
  4  'x+1/2, -y, z'
loop_
 _atom_site_type_symbol
 _atom_site_label
 _atom_site_symmetry_multiplicity
 _atom_site_fract_x
 _atom_site_fract_y
 _atom_site_fract_z
 _atom_site_occupancy
  H  H0  4  -0.16510505  0.09466226  0.74152470  1
  H  H1  4  -0.09753282  0.23912590  0.59459542  1
  H  H2  4  -0.07512548  0.38851884  0.97465640  1
  H  H3  4  0.00167794  0.52650684  0.82861751  1
  H  H4  4  0.12829265  0.03023663  0.75119121  1
  H  H5  4  0.18614027  0.20358785  0.88332763  1
  C  C6  4  -0.09995307  0.15302675  0.76828671  1
  C  C7  4  -0.05432935  0.24459493  0.67162371  1
  C  C8  4  -0.04568479  0.32473520  0.90690449  1
  C  C9  4  0.00292697  0.41475271  0.81097034  1
  C  C10  4  0.07376993  0.11260288  0.76367033  1
  C  C11  4  0.11166218  0.22677433  0.85300077  1
  N  N12  4  -0.20981449  0.21221818  0.92624363  1
  N  N13  4  -0.12541606  0.24413347  0.85961263  1
  N  N14  4  -0.07154314  0.49779446  0.63516471  1
  N  N15  4  -0.04978928  0.38727760  0.70886140  1
  N  N16  4  -0.03829320  -0.08828005  0.80586445  1
  N  N17  4  -0.02029127  0.05811958  0.80014731  1
  N  N18  4  0.02888113  0.13556720  1.02028877  1
  N  N19  4  0.04008448  0.24175149  0.94357572  1
  N  N20  4  0.04341997  0.17887019  0.65906806  1
  N  N21  4  0.10524669  0.36347574  0.80322636  1
  N  N22  4  0.11429069  0.23862318  0.58996631  1
  N  N23  4  0.18469055  0.46040158  0.81734344  1
  O  O24  4  -0.22336464  0.28603721  1.00754205  1
  O  O25  4  -0.12530696  -0.12253627  0.80425174  1
  O  O26  4  -0.10861262  0.46577811  0.54562826  1
  O  O27  4  -0.05308778  0.61455813  0.66941537  1
  O  O28  4  -0.04883029  0.13426928  1.07354594  1
  O  O29  4  0.03437000  -0.16116958  0.81827130  1
  O  O30  4  0.08372810  0.32312505  0.52126320  1
  O  O31  4  0.09865330  0.05431450  1.02942195  1
  O  O32  4  0.16474534  0.58094159  0.79434076  1
  O  O33  4  0.19968996  0.19814917  0.60293574  1
  O  O34  4  0.23553166  0.41159813  0.34405390  1
  O  O35  4  0.23822947  0.88282191  0.89284159  1
