###############################################################################################
#
# CIF file generated by modified CIFWriter class 
# in pymatgen (v2025.03.10) https://pymatgen.org/
#
###############################################################################################
data_PBE+MBD_tight_ff2e151373e74fa
_symmetry_space_group_name_H-M   P2_12_12_1
_cell_length_a   8.17007402
_cell_length_b   12.56454723
_cell_length_c   14.94830193
_cell_angle_alpha   90.00000000
_cell_angle_beta   90.00000000
_cell_angle_gamma   90.00000000
_symmetry_Int_Tables_number   19
_chemical_formula_moiety   'C6 H6 N12 O12'
_chemical_formula_sum   'H24 C24 N48 O48'
_cell_volume   1534.49223718
_cell_formula_units_Z   4
loop_
 _symmetry_equiv_pos_site_id
 _symmetry_equiv_pos_as_xyz
  1  'x, y, z'
  2  '-x+1/2, -y, z+1/2'
  3  'x+1/2, -y+1/2, -z'
  4  '-x, y+1/2, -z+1/2'
loop_
 _atom_site_type_symbol
 _atom_site_label
 _atom_site_symmetry_multiplicity
 _atom_site_fract_x
 _atom_site_fract_y
 _atom_site_fract_z
 _atom_site_occupancy
  H  H0  4  -0.09566578  0.47381839  0.56704191  1
  H  H1  4  -0.08243598  0.43510558  0.29032625  1
  H  H2  4  0.18034945  0.40720434  0.57746374  1
  H  H3  4  0.19431741  0.36835709  0.30156914  1
  H  H4  4  0.20501235  0.70988815  0.48721957  1
  H  H5  4  0.21265763  0.68893960  0.32998010  1
  C  C6  4  -0.02247209  0.49402430  0.50812683  1
  C  C7  4  -0.01459783  0.47141439  0.34549780  1
  C  C8  4  0.15933556  0.45059337  0.51511755  1
  C  C9  4  0.16445790  0.63046561  0.46823768  1
  C  C10  4  0.16746897  0.42805445  0.35259708  1
  C  C11  4  0.16881544  0.61607105  0.36191676  1
  N  N12  4  -0.09735983  0.45106370  0.42898051  1
  N  N13  4  -0.06532101  0.63627016  0.25592379  1
  N  N14  4  -0.05938596  0.67446791  0.57244107  1
  N  N15  4  -0.00051066  0.61041252  0.50125031  1
  N  N16  4  0.00734139  0.58577946  0.33080070  1
  N  N17  4  0.13821174  0.47025709  0.75840401  1
  N  N18  4  0.14071480  0.42434871  1.08511926  1
  N  N19  4  0.18635203  0.69771526  0.95072532  1
  N  N20  4  0.19094553  0.38244607  0.43993271  1
  N  N21  4  0.23007462  1.06265572  0.57239535  1
  N  N22  4  0.23011648  0.47626458  0.83934474  1
  N  N23  4  0.23892261  0.45235437  1.01117429  1
  O  O24  4  -0.18605232  0.59252818  0.22536395  1
  O  O25  4  -0.18467606  0.64279670  0.60877259  1
  O  O26  4  -0.00354256  0.72078831  0.23260469  1
  O  O27  4  0.01261975  0.75832391  0.58669292  1
  O  O28  4  0.09901303  0.33094299  1.09059769  1
  O  O29  4  0.09997488  0.38138974  0.73273867  1
  O  O30  4  0.10052412  0.49717961  1.13479637  1
  O  O31  4  0.10095262  0.55543492  0.72404059  1
  O  O32  4  0.13417826  0.73843131  0.88257597  1
  O  O33  4  0.15106682  0.71967095  1.02807309  1
  O  O34  4  0.16061113  1.05751646  0.49995668  1
  O  O35  4  0.16922154  1.08208339  0.64512146  1
