###############################################################################################
#
# CIF file generated by modified CIFWriter class 
# in pymatgen (v2025.03.10) https://pymatgen.org/
#
###############################################################################################
data_PBE+MBD_tight_10e6e6ca74219e2
_symmetry_space_group_name_H-M   C2/c
_cell_length_a   23.06875976
_cell_length_b   10.85948325
_cell_length_c   11.46864611
_cell_angle_alpha   90.00000000
_cell_angle_beta   28.94992875
_cell_angle_gamma   90.00000000
_symmetry_Int_Tables_number   15
_chemical_formula_moiety   'C3 H2 N4 O4'
_chemical_formula_sum   'H16 C24 N32 O32'
_cell_volume   1390.69337082
_cell_formula_units_Z   8
loop_
 _symmetry_equiv_pos_site_id
 _symmetry_equiv_pos_as_xyz
  1  'x, y, z'
  2  '-x, -y, -z'
  3  '-x, y, -z+1/2'
  4  'x, -y, z+1/2'
  5  'x+1/2, y+1/2, z'
  6  '-x+1/2, -y+1/2, -z'
  7  '-x+1/2, y+1/2, -z+1/2'
  8  'x+1/2, -y+1/2, z+1/2'
loop_
 _atom_site_type_symbol
 _atom_site_label
 _atom_site_symmetry_multiplicity
 _atom_site_fract_x
 _atom_site_fract_y
 _atom_site_fract_z
 _atom_site_occupancy
  H  H0  8  0.19558309  0.76144951  0.36429412  1
  H  H1  8  0.22147162  0.99444377  0.33398907  1
  C  C2  8  0.13638012  0.79463598  0.29350288  1
  C  C3  8  0.15820060  0.98551297  0.25742576  1
  C  C4  8  0.19030993  0.94595203  0.31216958  1
  N  N5  8  0.11028713  0.66910321  0.30589319  1
  N  N6  8  0.12482384  0.10871577  0.74585553  1
  N  N7  8  0.15545501  -0.11073406  0.72251654  1
  N  N8  8  0.17527339  0.17728567  0.83487244  1
  O  O9  8  0.08173229  0.64961015  0.25464347  1
  O  O10  8  0.11897060  1.13126906  0.18724175  1
  O  O11  8  0.12048569  0.59099356  0.36609760  1
  O  O12  8  0.18753184  1.19142756  0.23573825  1
