###############################################################################################
#
# CIF file generated by modified CIFWriter class 
# in pymatgen (v2025.03.10) https://pymatgen.org/
#
###############################################################################################
data_PBE+MBD_tight_133b5a934797830
_symmetry_space_group_name_H-M   P-4c2
_cell_length_a   9.58831083
_cell_length_b   9.58831083
_cell_length_c   16.95091068
_cell_angle_alpha   90.00000000
_cell_angle_beta   90.00000000
_cell_angle_gamma   90.00000000
_symmetry_Int_Tables_number   116
_chemical_formula_moiety   'C3 H2 N4 O4'
_chemical_formula_sum   'H16 C24 N32 O32'
_cell_volume   1558.39391733
_cell_formula_units_Z   8
loop_
 _symmetry_equiv_pos_site_id
 _symmetry_equiv_pos_as_xyz
  1  'x, y, z'
  2  'y, -x, -z'
  3  '-x, -y, z'
  4  '-y, x, -z'
  5  '-x, y, z+1/2'
  6  '-y, -x, -z+1/2'
  7  'x, -y, z+1/2'
  8  'y, x, -z+1/2'
loop_
 _atom_site_type_symbol
 _atom_site_label
 _atom_site_symmetry_multiplicity
 _atom_site_fract_x
 _atom_site_fract_y
 _atom_site_fract_z
 _atom_site_occupancy
  H  H0  8  0.01376700  0.33823199  0.00395451  1
  H  H1  8  0.15935984  0.40801501  0.12614427  1
  C  C2  8  0.19216092  0.21783395  -0.02944843  1
  C  C3  8  0.19338341  0.33873906  0.07952005  1
  C  C4  8  0.26382679  0.31594832  0.43079292  1
  N  N5  8  0.11480254  0.30597770  0.01574151  1
  N  N6  8  0.14144374  0.16066238  -0.10310351  1
  N  N7  8  0.18846367  0.31493298  0.49848573  1
  N  N8  8  0.25773868  0.43110643  0.37589617  1
  O  O9  8  0.01632454  0.17808735  -0.11711575  1
  O  O10  8  0.09854913  0.22609080  0.64457678  1
  O  O11  8  0.16332780  0.48283392  0.88508494  1
  O  O12  8  0.34730441  0.43366791  0.32404672  1
