###############################################################################################
#
# CIF file generated by modified CIFWriter class 
# in pymatgen (v2025.03.10) https://pymatgen.org/
#
###############################################################################################
data_PBE+MBD_tight_13c9ca1ac6849e7
_symmetry_space_group_name_H-M   P4_32_12
_cell_length_a   12.00015299
_cell_length_b   12.00015299
_cell_length_c   9.53002787
_cell_angle_alpha   90.00000000
_cell_angle_beta   90.00000000
_cell_angle_gamma   90.00000000
_symmetry_Int_Tables_number   96
_chemical_formula_moiety   'C3 H2 N4 O4'
_chemical_formula_sum   'H16 C24 N32 O32'
_cell_volume   1372.35900640
_cell_formula_units_Z   8
loop_
 _symmetry_equiv_pos_site_id
 _symmetry_equiv_pos_as_xyz
  1  'x, y, z'
  2  '-y+1/2, x+1/2, z+3/4'
  3  '-x, -y, z+1/2'
  4  'y+1/2, -x+1/2, z+1/4'
  5  'x+1/2, -y+1/2, -z+1/4'
  6  '-y, -x, -z+1/2'
  7  '-x+1/2, y+1/2, -z+3/4'
  8  'y, x, -z'
loop_
 _atom_site_type_symbol
 _atom_site_label
 _atom_site_symmetry_multiplicity
 _atom_site_fract_x
 _atom_site_fract_y
 _atom_site_fract_z
 _atom_site_occupancy
  H  H0  8  0.11936453  0.37245191  0.64228109  1
  H  H1  8  0.20967677  0.25455719  0.38222151  1
  C  C2  8  0.04372231  0.75436960  0.50152277  1
  C  C3  8  0.12928179  0.82875879  1.02015382  1
  C  C4  8  0.21030037  0.77459282  0.41418353  1
  N  N5  8  -0.05996186  0.69903972  0.53247424  1
  N  N6  8  0.02651619  0.76862975  1.01178287  1
  N  N7  8  0.06833353  0.85757574  0.53520874  1
  N  N8  8  0.12637803  0.70070956  0.42852059  1
  O  O9  8  -0.12743146  0.74769105  0.60718621  1
  O  O10  8  -0.07227231  0.60543595  0.47951750  1
  O  O11  8  -0.04692161  0.80224968  0.93289239  1
  O  O12  8  0.01886373  0.68435593  1.08868291  1
