###############################################################################################
#
# CIF file generated by modified CIFWriter class 
# in pymatgen (v2025.03.10) https://pymatgen.org/
#
###############################################################################################
data_PBE+MBD_tight_1ada7d12527b89
_symmetry_space_group_name_H-M   P4_222
_cell_length_a   14.09355436
_cell_length_b   14.09355436
_cell_length_c   7.81312430
_cell_angle_alpha   90.00000000
_cell_angle_beta   90.00000000
_cell_angle_gamma   90.00000000
_symmetry_Int_Tables_number   93
_chemical_formula_moiety   'C3 H2 N4 O4'
_chemical_formula_sum   'H16 C24 N32 O32'
_cell_volume   1551.90739768
_cell_formula_units_Z   8
loop_
 _symmetry_equiv_pos_site_id
 _symmetry_equiv_pos_as_xyz
  1  'x, y, z'
  2  '-y, x, z+1/2'
  3  '-x, -y, z'
  4  'y, -x, z+1/2'
  5  'x, -y, -z'
  6  '-y, -x, -z+1/2'
  7  '-x, y, -z'
  8  'y, x, -z+1/2'
loop_
 _atom_site_type_symbol
 _atom_site_label
 _atom_site_symmetry_multiplicity
 _atom_site_fract_x
 _atom_site_fract_y
 _atom_site_fract_z
 _atom_site_occupancy
  H  H0  8  0.00536075  0.23652823  0.34547227  1
  H  H1  8  0.00564668  0.39902490  0.19237334  1
  C  C2  8  0.06542698  0.36861537  0.26043379  1
  C  C3  8  0.14923547  0.26924402  0.41258549  1
  C  C4  8  0.15727880  0.40088554  0.29201082  1
  N  N5  8  0.06161743  0.28318914  0.33998272  1
  N  N6  8  0.16685862  0.18719468  0.51730006  1
  N  N7  8  0.19593611  0.49137050  0.23613064  1
  N  N8  8  0.20910927  0.33892791  0.38484722  1
  O  O9  8  0.09475172  0.85258272  0.42370868  1
  O  O10  8  0.13686796  0.45186809  0.82426362  1
  O  O11  8  0.16157837  0.24884901  -0.04125312  1
  O  O12  8  0.28056580  0.49447222  0.74784941  1
