###############################################################################################
#
# CIF file generated by modified CIFWriter class 
# in pymatgen (v2025.03.10) https://pymatgen.org/
#
###############################################################################################
data_PBE+MBD_tight_1ca7ad0f0e267a4
_symmetry_space_group_name_H-M   P4_32_12
_cell_length_a   7.82622570
_cell_length_b   7.82622570
_cell_length_c   21.04656069
_cell_angle_alpha   90.00000000
_cell_angle_beta   90.00000000
_cell_angle_gamma   90.00000000
_symmetry_Int_Tables_number   96
_chemical_formula_moiety   'C3 H2 N4 O4'
_chemical_formula_sum   'H16 C24 N32 O32'
_cell_volume   1289.09781600
_cell_formula_units_Z   8
loop_
 _symmetry_equiv_pos_site_id
 _symmetry_equiv_pos_as_xyz
  1  'x, y, z'
  2  '-y+1/2, x+1/2, z+3/4'
  3  '-x, -y, z+1/2'
  4  'y+1/2, -x+1/2, z+1/4'
  5  'x+1/2, -y+1/2, -z+1/4'
  6  '-y, -x, -z+1/2'
  7  '-x+1/2, y+1/2, -z+3/4'
  8  'y, x, -z'
loop_
 _atom_site_type_symbol
 _atom_site_label
 _atom_site_symmetry_multiplicity
 _atom_site_fract_x
 _atom_site_fract_y
 _atom_site_fract_z
 _atom_site_occupancy
  H  H0  8  -0.06294105  0.37013818  0.25921609  1
  H  H1  8  0.04757611  0.67439692  0.26012577  1
  C  C2  8  -0.04539015  0.38464302  0.15710869  1
  C  C3  8  0.02658093  0.59913162  0.21762807  1
  C  C4  8  0.04954265  0.63373274  0.15319477  1
  N  N5  8  -0.11261587  0.22045798  0.13942464  1
  N  N6  8  -0.03419717  0.43795708  0.21891018  1
  N  N7  8  0.00039092  0.49492062  0.36595414  1
  N  N8  8  0.11056679  0.79110768  0.12623616  1
  O  O9  8  -0.11624818  0.18386393  0.08262391  1
  O  O10  8  0.09127263  0.85881873  0.33593062  1
  O  O11  8  0.12811283  -0.16235434  0.81653385  1
  O  O12  8  0.12828702  0.79978109  0.06820204  1
