###############################################################################################
#
# CIF file generated by modified CIFWriter class 
# in pymatgen (v2025.03.10) https://pymatgen.org/
#
###############################################################################################
data_PBE+MBD_tight_1d20349646922d6
_symmetry_space_group_name_H-M   P4_12_12
_cell_length_a   6.46407095
_cell_length_b   6.46407095
_cell_length_c   34.50468742
_cell_angle_alpha   90.00000000
_cell_angle_beta   90.00000000
_cell_angle_gamma   90.00000000
_symmetry_Int_Tables_number   92
_chemical_formula_moiety   'C3 H2 N4 O4'
_chemical_formula_sum   'H16 C24 N32 O32'
_cell_volume   1441.75121839
_cell_formula_units_Z   8
loop_
 _symmetry_equiv_pos_site_id
 _symmetry_equiv_pos_as_xyz
  1  'x, y, z'
  2  '-y+1/2, x+1/2, z+1/4'
  3  '-x, -y, z+1/2'
  4  'y+1/2, -x+1/2, z+3/4'
  5  'x+1/2, -y+1/2, -z+3/4'
  6  '-y, -x, -z+1/2'
  7  '-x+1/2, y+1/2, -z+1/4'
  8  'y, x, -z'
loop_
 _atom_site_type_symbol
 _atom_site_label
 _atom_site_symmetry_multiplicity
 _atom_site_fract_x
 _atom_site_fract_y
 _atom_site_fract_z
 _atom_site_occupancy
  H  H0  8  0.04942887  0.36556616  0.59335699  1
  H  H1  8  0.20390602  0.20567909  0.53332664  1
  C  C2  8  -0.09223098  0.12567542  0.43502211  1
  C  C3  8  0.00514448  0.05495899  0.61389229  1
  C  C4  8  0.11830526  0.14317696  0.44255990  1
  N  N5  8  -0.08918328  0.10235380  0.65071504  1
  N  N6  8  0.04080298  -0.13150893  0.60012023  1
  N  N7  8  0.06559124  0.20968822  0.58942797  1
  N  N8  8  0.18793772  -0.25386259  0.53887287  1
  O  O9  8  -0.20231363  0.23953961  0.49407551  1
  O  O10  8  -0.08132522  0.28598778  0.66083783  1
  O  O11  8  -0.03993828  -0.16891693  0.33103303  1
  O  O12  8  0.06605777  0.31368395  0.30107809  1
