###############################################################################################
#
# CIF file generated by modified CIFWriter class 
# in pymatgen (v2025.03.10) https://pymatgen.org/
#
###############################################################################################
data_PBE+MBD_tight_1f151348f4ba71c
_symmetry_space_group_name_H-M   Aem2
_cell_length_a   6.87388521
_cell_length_b   35.08767572
_cell_length_c   9.19865718
_cell_angle_alpha   90.00000000
_cell_angle_beta   90.00000000
_cell_angle_gamma   90.00000000
_symmetry_Int_Tables_number   39
_chemical_formula_moiety   'C3 H2 N4 O4'
_chemical_formula_sum   'H16 C24 N32 O32'
_cell_volume   2218.61175326
_cell_formula_units_Z   8
loop_
 _symmetry_equiv_pos_site_id
 _symmetry_equiv_pos_as_xyz
  1  'x, y, z'
  2  '-x, -y, z'
  3  '-x, y+1/2, z'
  4  'x, -y+1/2, z'
  5  'x, y+1/2, z+1/2'
  6  '-x, -y+1/2, z+1/2'
  7  '-x, y, z+1/2'
  8  'x, -y, z+1/2'
loop_
 _atom_site_type_symbol
 _atom_site_label
 _atom_site_symmetry_multiplicity
 _atom_site_fract_x
 _atom_site_fract_y
 _atom_site_fract_z
 _atom_site_occupancy
  H  H0  8  -0.00417611  0.02932161  0.38262010  1
  H  H1  8  0.32439990  0.01254891  0.50316564  1
  C  C2  8  0.12129731  0.04771748  0.38933982  1
  C  C3  8  0.14959598  0.08476388  0.33998355  1
  C  C4  8  0.40740594  0.06964758  0.44454326  1
  N  N5  8  0.00708627  0.10579276  0.25472363  1
  N  N6  8  0.28975070  0.03827103  0.45591693  1
  N  N7  8  0.32660740  0.09835981  0.37470834  1
  N  N8  8  0.40124662  0.06941044  1.00554083  1
  O  O9  8  -0.13440767  0.08637579  0.21348463  1
  O  O10  8  0.03542043  0.13930392  0.22933734  1
  O  O11  8  0.30576128  0.09856521  1.00549710  1
  O  O12  8  0.34436520  0.03798399  1.05798390  1
