###############################################################################################
#
# CIF file generated by modified CIFWriter class 
# in pymatgen (v2025.03.10) https://pymatgen.org/
#
###############################################################################################
data_PBE+MBD_tight_214ce4633dd3c1
_symmetry_space_group_name_H-M   Pbca
_cell_length_a   18.74919332
_cell_length_b   6.15311070
_cell_length_c   10.70140384
_cell_angle_alpha   90.00000000
_cell_angle_beta   90.00000000
_cell_angle_gamma   90.00000000
_symmetry_Int_Tables_number   61
_chemical_formula_moiety   'C3 H2 N4 O4'
_chemical_formula_sum   'H16 C24 N32 O32'
_cell_volume   1234.57667921
_cell_formula_units_Z   8
loop_
 _symmetry_equiv_pos_site_id
 _symmetry_equiv_pos_as_xyz
  1  'x, y, z'
  2  '-x, -y, -z'
  3  'x+1/2, -y+1/2, -z'
  4  '-x+1/2, y+1/2, z'
  5  '-x, y+1/2, -z+1/2'
  6  'x, -y+1/2, z+1/2'
  7  '-x+1/2, -y, z+1/2'
  8  'x+1/2, y, -z+1/2'
loop_
 _atom_site_type_symbol
 _atom_site_label
 _atom_site_symmetry_multiplicity
 _atom_site_fract_x
 _atom_site_fract_y
 _atom_site_fract_z
 _atom_site_occupancy
  H  H0  8  0.01688532  0.74976934  1.06210939  1
  H  H1  8  0.15181568  0.74941576  1.03567169  1
  C  C2  8  0.01970553  0.74979377  0.85014804  1
  C  C3  8  0.04433259  0.74941157  0.97282816  1
  C  C4  8  0.13086412  0.74951232  0.83695019  1
  N  N5  8  -0.05393714  0.74899156  0.31220345  1
  N  N6  8  0.07357664  0.74982414  0.76599911  1
  N  N7  8  0.11612085  0.74919475  0.96193541  1
  N  N8  8  0.20284248  0.74994143  0.79017478  1
  O  O9  8  -0.09905315  0.74724275  0.39598398  1
  O  O10  8  -0.06703070  0.74956418  0.19886195  1
  O  O11  8  0.21177297  0.74797778  0.67565134  1
  O  O12  8  0.24925780  0.24777819  0.36881185  1
