###############################################################################################
#
# CIF file generated by modified CIFWriter class 
# in pymatgen (v2025.03.10) https://pymatgen.org/
#
###############################################################################################
data_PBE+MBD_tight_2170beb630d1fc
_symmetry_space_group_name_H-M   I4
_cell_length_a   12.42055788
_cell_length_b   12.42055788
_cell_length_c   11.31854936
_cell_angle_alpha   90.00000000
_cell_angle_beta   90.00000000
_cell_angle_gamma   90.00000000
_symmetry_Int_Tables_number   79
_chemical_formula_moiety   'C3 H2 N4 O4'
_chemical_formula_sum   'H16 C24 N32 O32'
_cell_volume   1746.11553235
_cell_formula_units_Z   8
loop_
 _symmetry_equiv_pos_site_id
 _symmetry_equiv_pos_as_xyz
  1  'x, y, z'
  2  '-y, x, z'
  3  '-x, -y, z'
  4  'y, -x, z'
  5  'x+1/2, y+1/2, z+1/2'
  6  '-y+1/2, x+1/2, z+1/2'
  7  '-x+1/2, -y+1/2, z+1/2'
  8  'y+1/2, -x+1/2, z+1/2'
loop_
 _atom_site_type_symbol
 _atom_site_label
 _atom_site_symmetry_multiplicity
 _atom_site_fract_x
 _atom_site_fract_y
 _atom_site_fract_z
 _atom_site_occupancy
  H  H0  8  -0.05372321  0.69053699  0.77392724  1
  H  H1  8  -0.00791156  0.71075107  0.99432735  1
  C  C2  8  0.02564274  0.67926073  0.81222921  1
  C  C3  8  0.12426732  0.64928395  0.76291472  1
  C  C4  8  0.15422462  0.66742014  0.94274356  1
  N  N5  8  0.04723212  0.69107348  0.92827858  1
  N  N6  8  0.12322125  0.35929818  0.14116670  1
  N  N7  8  0.14220242  0.29613690  0.34420543  1
  N  N8  8  0.16520893  0.29825461  0.55932451  1
  O  O9  8  0.06114407  0.62260982  0.57588521  1
  O  O10  8  0.10047496  0.26648756  0.10808729  1
  O  O11  8  0.13882586  0.68048529  1.14273821  1
  O  O12  8  0.14757868  0.20145416  0.56767544  1
