###############################################################################################
#
# CIF file generated by modified CIFWriter class 
# in pymatgen (v2025.03.10) https://pymatgen.org/
#
###############################################################################################
data_PBE+MBD_tight_24578755f86f15f
_symmetry_space_group_name_H-M   P4nc
_cell_length_a   13.98590941
_cell_length_b   13.98590941
_cell_length_c   6.96000690
_cell_angle_alpha   90.00000000
_cell_angle_beta   90.00000000
_cell_angle_gamma   90.00000000
_symmetry_Int_Tables_number   104
_chemical_formula_moiety   'C3 H2 N4 O4'
_chemical_formula_sum   'H16 C24 N32 O32'
_cell_volume   1361.41675721
_cell_formula_units_Z   8
loop_
 _symmetry_equiv_pos_site_id
 _symmetry_equiv_pos_as_xyz
  1  'x, y, z'
  2  '-y, x, z'
  3  '-x, -y, z'
  4  'y, -x, z'
  5  '-x+1/2, y+1/2, z+1/2'
  6  'y+1/2, x+1/2, z+1/2'
  7  'x+1/2, -y+1/2, z+1/2'
  8  '-y+1/2, -x+1/2, z+1/2'
loop_
 _atom_site_type_symbol
 _atom_site_label
 _atom_site_symmetry_multiplicity
 _atom_site_fract_x
 _atom_site_fract_y
 _atom_site_fract_z
 _atom_site_occupancy
  H  H0  8  -0.17614282  0.76324409  0.69745785  1
  H  H1  8  -0.11038470  0.70280746  1.01911023  1
  C  C2  8  -0.06769739  0.72509131  0.89803621  1
  C  C3  8  -0.02971637  0.78159041  0.61642312  1
  C  C4  8  0.03026558  0.73808697  0.87716138  1
  N  N5  8  -0.10505225  0.75293590  0.72769970  1
  N  N6  8  -0.04298140  0.80462073  0.41604578  1
  N  N7  8  0.05361045  0.77453985  0.70276672  1
  N  N8  8  0.10096131  0.71395832  1.01999074  1
  O  O9  8  -0.11698822  0.77296165  0.34193604  1
  O  O10  8  0.01929681  0.85087944  0.33480977  1
  O  O11  8  0.07311992  0.66525383  1.15709027  1
  O  O12  8  0.18338809  0.74298012  0.99671654  1
