###############################################################################################
#
# CIF file generated by modified CIFWriter class 
# in pymatgen (v2025.03.10) https://pymatgen.org/
#
###############################################################################################
data_PBE+MBD_tight_25189b4521086e8
_symmetry_space_group_name_H-M   Iba2
_cell_length_a   12.21370729
_cell_length_b   11.93025159
_cell_length_c   9.90886048
_cell_angle_alpha   90.00000000
_cell_angle_beta   90.00000000
_cell_angle_gamma   90.00000000
_symmetry_Int_Tables_number   45
_chemical_formula_moiety   'C3 H2 N4 O4'
_chemical_formula_sum   'H16 C24 N32 O32'
_cell_volume   1443.84583203
_cell_formula_units_Z   8
loop_
 _symmetry_equiv_pos_site_id
 _symmetry_equiv_pos_as_xyz
  1  'x, y, z'
  2  '-x, -y, z'
  3  'x, -y, z+1/2'
  4  '-x, y, z+1/2'
  5  'x+1/2, y+1/2, z+1/2'
  6  '-x+1/2, -y+1/2, z+1/2'
  7  'x+1/2, -y+1/2, z'
  8  '-x+1/2, y+1/2, z'
loop_
 _atom_site_type_symbol
 _atom_site_label
 _atom_site_symmetry_multiplicity
 _atom_site_fract_x
 _atom_site_fract_y
 _atom_site_fract_z
 _atom_site_occupancy
  H  H0  8  0.03128166  0.39566762  0.44580676  1
  H  H1  8  0.07900391  0.78098189  0.08103295  1
  C  C2  8  0.13594228  0.28520363  0.55532446  1
  C  C3  8  0.20053236  0.44073525  0.47148139  1
  C  C4  8  0.24747008  0.29973819  0.58067800  1
  N  N5  8  0.10717648  0.37784763  0.48574419  1
  N  N6  8  0.18506181  0.72219158  0.65421535  1
  N  N7  8  0.19960179  0.54528391  0.40050511  1
  N  N8  8  0.21271427  0.10424561  0.02801539  1
  O  O9  8  0.08851801  0.25400348  0.17518262  1
  O  O10  8  0.10763364  0.41603791  -0.13070190  1
  O  O11  8  0.21308909  -0.09033505  -0.12572108  1
  O  O12  8  0.23021165  0.36580840  0.19124216  1
