###############################################################################################
#
# CIF file generated by modified CIFWriter class 
# in pymatgen (v2025.03.10) https://pymatgen.org/
#
###############################################################################################
data_PBE+MBD_tight_280f8f4508c3038
_symmetry_space_group_name_H-M   Pbca
_cell_length_a   16.15151704
_cell_length_b   10.78776087
_cell_length_c   6.85083361
_cell_angle_alpha   90.00000000
_cell_angle_beta   90.00000000
_cell_angle_gamma   90.00000000
_symmetry_Int_Tables_number   61
_chemical_formula_moiety   'C3 H2 N4 O4'
_chemical_formula_sum   'H16 C24 N32 O32'
_cell_volume   1193.68036590
_cell_formula_units_Z   8
loop_
 _symmetry_equiv_pos_site_id
 _symmetry_equiv_pos_as_xyz
  1  'x, y, z'
  2  '-x, -y, -z'
  3  '-x, y+1/2, -z+1/2'
  4  'x, -y+1/2, z+1/2'
  5  '-x+1/2, -y, z+1/2'
  6  'x+1/2, y, -z+1/2'
  7  'x+1/2, -y+1/2, -z'
  8  '-x+1/2, y+1/2, z'
loop_
 _atom_site_type_symbol
 _atom_site_label
 _atom_site_symmetry_multiplicity
 _atom_site_fract_x
 _atom_site_fract_y
 _atom_site_fract_z
 _atom_site_occupancy
  H  H0  8  0.09963450  0.44072978  0.06585241  1
  H  H1  8  0.24604264  -0.10558677  0.01929924  1
  C  C2  8  0.13606840  0.62904567  0.10765525  1
  C  C3  8  0.22758544  0.48604727  0.04072181  1
  C  C4  8  0.23725257  0.10325014  0.05980387  1
  N  N5  8  0.05587837  0.68002076  0.15566381  1
  N  N6  8  0.14577083  0.50574032  0.07054432  1
  N  N7  8  0.15050350  0.13244240  0.04014832  1
  N  N8  8  0.20592705  0.69163065  0.10257709  1
  O  O9  8  -0.00271162  0.60669423  0.14618820  1
  O  O10  8  0.05269849  0.71050993  0.70359005  1
  O  O11  8  0.10425389  0.04725671  -0.00927795  1
  O  O12  8  0.12889130  0.23986265  0.07472960  1
