###############################################################################################
#
# CIF file generated by modified CIFWriter class 
# in pymatgen (v2025.03.10) https://pymatgen.org/
#
###############################################################################################
data_PBE+MBD_tight_28494e99eddd8bc
_symmetry_space_group_name_H-M   P-4n2
_cell_length_a   8.83124915
_cell_length_b   8.83124915
_cell_length_c   18.62147230
_cell_angle_alpha   90.00000000
_cell_angle_beta   90.00000000
_cell_angle_gamma   90.00000000
_symmetry_Int_Tables_number   118
_chemical_formula_moiety   'C3 H2 N4 O4'
_chemical_formula_sum   'H16 C24 N32 O32'
_cell_volume   1452.30652905
_cell_formula_units_Z   8
loop_
 _symmetry_equiv_pos_site_id
 _symmetry_equiv_pos_as_xyz
  1  'x, y, z'
  2  'y, -x, -z'
  3  '-x, -y, z'
  4  '-y, x, -z'
  5  '-x+1/2, y+1/2, z+1/2'
  6  '-y+1/2, -x+1/2, -z+1/2'
  7  'x+1/2, -y+1/2, z+1/2'
  8  'y+1/2, x+1/2, -z+1/2'
loop_
 _atom_site_type_symbol
 _atom_site_label
 _atom_site_symmetry_multiplicity
 _atom_site_fract_x
 _atom_site_fract_y
 _atom_site_fract_z
 _atom_site_occupancy
  H  H0  8  -0.16188383  0.30127606  0.46461846  1
  H  H1  8  0.09868255  0.36315247  0.51534865  1
  C  C2  8  -0.04108747  0.21994774  0.37033708  1
  C  C3  8  0.07833012  0.31416207  0.46281774  1
  C  C4  8  0.17540706  0.27462655  0.40716011  1
  N  N5  8  -0.06141109  0.27803455  0.43774143  1
  N  N6  8  0.10114605  0.21743374  0.34961053  1
  N  N7  8  0.15491361  1.16669577  0.66981772  1
  N  N8  8  0.16151432  0.78830612  0.90886640  1
  O  O9  8  0.09267080  0.81081013  0.85352621  1
  O  O10  8  0.10231016  0.77611211  0.97012251  1
  O  O11  8  0.12706270  1.14600575  0.73313085  1
  O  O12  8  0.13177621  1.28362621  0.63461849  1
