###############################################################################################
#
# CIF file generated by modified CIFWriter class 
# in pymatgen (v2025.03.10) https://pymatgen.org/
#
###############################################################################################
data_PBE+MBD_tight_2a2921a6276ea8
_symmetry_space_group_name_H-M   Pban
_cell_length_a   6.69881368
_cell_length_b   13.38007958
_cell_length_c   16.09807436
_cell_angle_alpha   90.00000000
_cell_angle_beta   90.00000000
_cell_angle_gamma   90.00000000
_symmetry_Int_Tables_number   50
_chemical_formula_moiety   'C3 H2 N4 O4'
_chemical_formula_sum   'H16 C24 N32 O32'
_cell_volume   1442.88103220
_cell_formula_units_Z   8
loop_
 _symmetry_equiv_pos_site_id
 _symmetry_equiv_pos_as_xyz
  1  'x, y, z'
  2  '-x, -y, z'
  3  'x, -y, -z'
  4  '-x, y, -z'
  5  '-x+1/2, -y+1/2, -z'
  6  'x+1/2, y+1/2, -z'
  7  '-x+1/2, y+1/2, z'
  8  'x+1/2, -y+1/2, z'
loop_
 _atom_site_type_symbol
 _atom_site_label
 _atom_site_symmetry_multiplicity
 _atom_site_fract_x
 _atom_site_fract_y
 _atom_site_fract_z
 _atom_site_occupancy
  H  H0  8  0.21163069  0.36172685  0.09465541  1
  H  H1  8  0.24663636  0.45032658  0.23504010  1
  C  C2  8  0.21331993  0.19530256  0.71287082  1
  C  C3  8  0.23321456  0.32493995  0.15397888  1
  C  C4  8  0.24762360  0.27506184  0.82357201  1
  N  N5  8  0.17870889  0.16471590  0.62688952  1
  N  N6  8  0.21345225  0.28730386  0.74094125  1
  N  N7  8  0.24192393  0.14139486  0.12065681  1
  N  N8  8  0.24450733  0.12538098  0.77329197  1
  O  O9  8  0.13057357  0.22998229  0.57794815  1
  O  O10  8  0.19954425  0.15907974  0.04763477  1
  O  O11  8  0.20044050  0.07461045  0.61346265  1
  O  O12  8  0.22239481  0.44309167  0.85144651  1
