###############################################################################################
#
# CIF file generated by modified CIFWriter class 
# in pymatgen (v2025.03.10) https://pymatgen.org/
#
###############################################################################################
data_PBE+MBD_tight_2a790e11e4248c0
_symmetry_space_group_name_H-M   P-42_1c
_cell_length_a   7.44094015
_cell_length_b   7.44094015
_cell_length_c   23.56442753
_cell_angle_alpha   90.00000000
_cell_angle_beta   90.00000000
_cell_angle_gamma   90.00000000
_symmetry_Int_Tables_number   114
_chemical_formula_moiety   'C3 H2 N4 O4'
_chemical_formula_sum   'H16 C24 N32 O32'
_cell_volume   1304.70556994
_cell_formula_units_Z   8
loop_
 _symmetry_equiv_pos_site_id
 _symmetry_equiv_pos_as_xyz
  1  'x, y, z'
  2  'y, -x, -z'
  3  '-x, -y, z'
  4  '-y, x, -z'
  5  'x+1/2, -y+1/2, -z+1/2'
  6  'y+1/2, x+1/2, z+1/2'
  7  '-x+1/2, y+1/2, -z+1/2'
  8  '-y+1/2, -x+1/2, z+1/2'
loop_
 _atom_site_type_symbol
 _atom_site_label
 _atom_site_symmetry_multiplicity
 _atom_site_fract_x
 _atom_site_fract_y
 _atom_site_fract_z
 _atom_site_occupancy
  H  H0  8  0.09024209  0.24875714  0.11674866  1
  H  H1  8  0.17647482  0.67773218  0.96144564  1
  C  C2  8  -0.01620100  0.75125472  0.39062719  1
  C  C3  8  0.14575836  0.71789145  0.41854994  1
  C  C4  8  0.18274001  0.80483475  0.33055516  1
  N  N5  8  -0.19153961  0.73746369  0.41536323  1
  N  N6  8  0.00807229  0.80558568  0.33619021  1
  N  N7  8  0.14167864  0.28676821  0.71900431  1
  N  N8  8  0.22773521  0.25290464  0.12117419  1
  O  O9  8  0.05126720  0.32586949  0.21508682  1
  O  O10  8  0.06880784  0.20899124  0.75841369  1
  O  O11  8  0.17360130  0.29851174  0.96402426  1
  O  O12  8  0.17803263  0.71000167  0.11266658  1
