###############################################################################################
#
# CIF file generated by modified CIFWriter class 
# in pymatgen (v2025.03.10) https://pymatgen.org/
#
###############################################################################################
data_PBE+MBD_tight_2abab8669f2feb8
_symmetry_space_group_name_H-M   P-42_1c
_cell_length_a   14.11034088
_cell_length_b   14.11034088
_cell_length_c   6.71869692
_cell_angle_alpha   90.00000000
_cell_angle_beta   90.00000000
_cell_angle_gamma   90.00000000
_symmetry_Int_Tables_number   114
_chemical_formula_moiety   'C3 H2 N4 O4'
_chemical_formula_sum   'H16 C24 N32 O32'
_cell_volume   1337.70411185
_cell_formula_units_Z   8
loop_
 _symmetry_equiv_pos_site_id
 _symmetry_equiv_pos_as_xyz
  1  'x, y, z'
  2  'y, -x, -z'
  3  '-x, -y, z'
  4  '-y, x, -z'
  5  'x+1/2, -y+1/2, -z+1/2'
  6  'y+1/2, x+1/2, z+1/2'
  7  '-x+1/2, y+1/2, -z+1/2'
  8  '-y+1/2, -x+1/2, z+1/2'
loop_
 _atom_site_type_symbol
 _atom_site_label
 _atom_site_symmetry_multiplicity
 _atom_site_fract_x
 _atom_site_fract_y
 _atom_site_fract_z
 _atom_site_occupancy
  H  H0  8  -0.14718637  1.26945168  1.06480165  1
  H  H1  8  -0.07198872  1.17225021  1.34760447  1
  C  C2  8  -0.07200170  1.25665035  1.08245968  1
  C  C3  8  0.00633553  1.28150634  0.96614447  1
  C  C4  8  0.06109421  1.20547792  1.20609737  1
  N  N5  8  -0.03496996  1.20714349  1.23543418  1
  N  N6  8  0.00324921  1.34027486  0.78939318  1
  N  N7  8  0.08841658  1.24867719  1.04143721  1
  N  N8  8  0.12356121  1.16560737  1.34938312  1
  O  O9  8  -0.16783303  0.20944303  -0.31865009  1
  O  O10  8  -0.06661476  1.39221175  0.77321350  1
  O  O11  8  0.06937739  1.33452696  0.67077879  1
  O  O12  8  0.08586227  1.12997153  1.50051071  1
