###############################################################################################
#
# CIF file generated by modified CIFWriter class 
# in pymatgen (v2025.03.10) https://pymatgen.org/
#
###############################################################################################
data_PBE+MBD_tight_2d7a4408e4d8d3f
_symmetry_space_group_name_H-M   C2/c
_cell_length_a   18.89835138
_cell_length_b   5.83725816
_cell_length_c   14.45176153
_cell_angle_alpha   90.00000000
_cell_angle_beta   95.04688021
_cell_angle_gamma   90.00000000
_symmetry_Int_Tables_number   15
_chemical_formula_moiety   'C3 H2 N4 O4'
_chemical_formula_sum   'H16 C24 N32 O32'
_cell_volume   1588.05887040
_cell_formula_units_Z   8
loop_
 _symmetry_equiv_pos_site_id
 _symmetry_equiv_pos_as_xyz
  1  'x, y, z'
  2  '-x, -y, -z'
  3  '-x, y, -z+1/2'
  4  'x, -y, z+1/2'
  5  'x+1/2, y+1/2, z'
  6  '-x+1/2, -y+1/2, -z'
  7  '-x+1/2, y+1/2, -z+1/2'
  8  'x+1/2, -y+1/2, z+1/2'
loop_
 _atom_site_type_symbol
 _atom_site_label
 _atom_site_symmetry_multiplicity
 _atom_site_fract_x
 _atom_site_fract_y
 _atom_site_fract_z
 _atom_site_occupancy
  H  H0  8  0.05561730  0.50410023  0.33012254  1
  H  H1  8  0.15678289  0.49541272  0.96060160  1
  C  C2  8  0.11172124  0.49950508  0.31972008  1
  C  C3  8  0.14818097  0.50788973  0.73989954  1
  C  C4  8  0.22675099  0.50742597  0.85049014  1
  N  N5  8  0.11722840  0.50943070  0.64571379  1
  N  N6  8  0.16360755  0.50032745  0.89026528  1
  N  N7  8  0.20574666  0.00894457  0.59454075  1
  N  N8  8  0.21939566  0.48789285  0.25944367  1
  O  O9  8  0.05202655  0.49458106  0.13143096  1
  O  O10  8  0.15178860  0.98668282  0.13638463  1
  O  O11  8  0.15908345  0.48569514  0.08431849  1
  O  O12  8  0.20758387  0.99452261  0.00930743  1
