###############################################################################################
#
# CIF file generated by modified CIFWriter class 
# in pymatgen (v2025.03.10) https://pymatgen.org/
#
###############################################################################################
data_PBE+MBD_tight_30eade37b6fe7ea
_symmetry_space_group_name_H-M   I4/m
_cell_length_a   14.27421131
_cell_length_b   14.27421131
_cell_length_c   6.48898578
_cell_angle_alpha   90.00000000
_cell_angle_beta   90.00000000
_cell_angle_gamma   90.00000000
_symmetry_Int_Tables_number   87
_chemical_formula_moiety   'C3 H2 N4 O4'
_chemical_formula_sum   'H16 C24 N32 O32'
_cell_volume   1322.15102462
_cell_formula_units_Z   8
loop_
 _symmetry_equiv_pos_site_id
 _symmetry_equiv_pos_as_xyz
  1  'x, y, z'
  2  '-x, -y, -z+593/813'
  3  '-y, x, z'
  4  'y, -x, -z+593/813'
  5  '-x, -y, z'
  6  'x, y, -z+593/813'
  7  'y, -x, z'
  8  '-y, x, -z+593/813'
  9  'x+1/2, y+1/2, z+1/2'
  10  '-x+1/2, -y+1/2, -z+167/728'
  11  '-y+1/2, x+1/2, z+1/2'
  12  'y+1/2, -x+1/2, -z+167/728'
  13  '-x+1/2, -y+1/2, z+1/2'
  14  'x+1/2, y+1/2, -z+167/728'
  15  'y+1/2, -x+1/2, z+1/2'
  16  '-y+1/2, x+1/2, -z+167/728'
loop_
 _atom_site_type_symbol
 _atom_site_label
 _atom_site_symmetry_multiplicity
 _atom_site_fract_x
 _atom_site_fract_y
 _atom_site_fract_z
 _atom_site_occupancy
  H  H0  8  -0.15262801  0.84608593  0.86469851  1
  H  H1  8  0.19405609  0.25153911  0.36469851  1
  C  C2  8  -0.08400269  0.71061587  0.86469851  1
  C  C3  8  0.12900667  0.70452920  0.36469851  1
  C  C4  8  0.22162350  0.73609732  0.36469851  1
  N  N5  8  -0.15664009  0.77337628  0.86469851  1
  N  N6  8  -0.11044614  0.62243386  0.86469851  1
  N  N7  8  0.01147083  0.74092286  0.86469851  1
  N  N8  8  0.04706359  0.76445074  0.36469851  1
  O  O9  8  -0.03068073  0.72628056  0.36469851  1
  O  O10  8  0.02487504  0.82760733  0.86469851  1
  O  O11  8  0.06181235  0.84945783  0.36469851  1
  O  O12  8  0.07354550  0.68144828  0.86469851  1
