###############################################################################################
#
# CIF file generated by modified CIFWriter class 
# in pymatgen (v2025.03.10) https://pymatgen.org/
#
###############################################################################################
data_PBE+MBD_tight_314d0c2b59e26e1
_symmetry_space_group_name_H-M   Pbca
_cell_length_a   18.67087735
_cell_length_b   6.56086916
_cell_length_c   9.96904444
_cell_angle_alpha   90.00000000
_cell_angle_beta   90.00000000
_cell_angle_gamma   90.00000000
_symmetry_Int_Tables_number   61
_chemical_formula_moiety   'C3 H2 N4 O4'
_chemical_formula_sum   'H16 C24 N32 O32'
_cell_volume   1221.17986465
_cell_formula_units_Z   8
loop_
 _symmetry_equiv_pos_site_id
 _symmetry_equiv_pos_as_xyz
  1  'x, y, z'
  2  '-x, -y, -z'
  3  'x+1/2, -y+1/2, -z'
  4  '-x+1/2, y+1/2, z'
  5  '-x, y+1/2, -z+1/2'
  6  'x, -y+1/2, z+1/2'
  7  '-x+1/2, -y, z+1/2'
  8  'x+1/2, y, -z+1/2'
loop_
 _atom_site_type_symbol
 _atom_site_label
 _atom_site_symmetry_multiplicity
 _atom_site_fract_x
 _atom_site_fract_y
 _atom_site_fract_z
 _atom_site_occupancy
  H  H0  8  0.07977594  -0.07491724  0.86685206  1
  H  H1  8  0.14052768  0.23580025  0.41685674  1
  C  C2  8  0.09873075  0.01999306  0.65185898  1
  C  C3  8  0.09995088  0.02937529  0.79137346  1
  C  C4  8  0.15000757  0.20531868  0.19986633  1
  N  N5  8  0.06815486  -0.13947512  0.57237239  1
  N  N6  8  0.12984220  0.18566932  0.59531913  1
  N  N7  8  0.13306547  0.20682093  0.81954407  1
  N  N8  8  0.18793875  0.01490131  0.19065906  1
  O  O9  8  0.04525739  -0.29112947  0.63233181  1
  O  O10  8  0.06642837  -0.11602074  0.44935871  1
  O  O11  8  0.19782083  -0.05618201  0.07766792  1
  O  O12  8  0.20767969  -0.06222767  0.29742495  1
