###############################################################################################
#
# CIF file generated by modified CIFWriter class 
# in pymatgen (v2025.03.10) https://pymatgen.org/
#
###############################################################################################
data_PBE+MBD_tight_326f7032905e73
_symmetry_space_group_name_H-M   Pbca
_cell_length_a   5.94365240
_cell_length_b   20.92905667
_cell_length_c   10.09626560
_cell_angle_alpha   90.00000000
_cell_angle_beta   90.00000000
_cell_angle_gamma   90.00000000
_symmetry_Int_Tables_number   61
_chemical_formula_moiety   'C3 H2 N4 O4'
_chemical_formula_sum   'H16 C24 N32 O32'
_cell_volume   1255.92534184
_cell_formula_units_Z   8
loop_
 _symmetry_equiv_pos_site_id
 _symmetry_equiv_pos_as_xyz
  1  'x, y, z'
  2  '-x, -y, -z'
  3  '-x+1/2, -y, z+1/2'
  4  'x+1/2, y, -z+1/2'
  5  'x+1/2, -y+1/2, -z'
  6  '-x+1/2, y+1/2, z'
  7  '-x, y+1/2, -z+1/2'
  8  'x, -y+1/2, z+1/2'
loop_
 _atom_site_type_symbol
 _atom_site_label
 _atom_site_symmetry_multiplicity
 _atom_site_fract_x
 _atom_site_fract_y
 _atom_site_fract_z
 _atom_site_occupancy
  H  H0  8  0.22052346  0.55259127  1.08520488  1
  H  H1  8  0.23173820  0.67303065  1.13138660  1
  C  C2  8  0.20217635  0.17701044  0.91010770  1
  C  C3  8  0.21544293  0.07858839  0.88150993  1
  C  C4  8  0.24736986  0.15102903  1.03493023  1
  N  N5  8  0.17555129  0.24407036  0.88205793  1
  N  N6  8  0.18236704  0.13212947  0.81566172  1
  N  N7  8  0.21528459  0.01668749  0.82351867  1
  N  N8  8  0.24598852  0.58747780  1.01413218  1
  O  O9  8  0.09645646  0.24044968  0.27391039  1
  O  O10  8  0.19886662  0.01408580  0.70047459  1
  O  O11  8  0.23242307  -0.03004222  0.89750998  1
  O  O12  8  0.23295897  0.21829815  0.47008386  1
