###############################################################################################
#
# CIF file generated by modified CIFWriter class 
# in pymatgen (v2025.03.10) https://pymatgen.org/
#
###############################################################################################
data_PBE+MBD_tight_334f0114690c648
_symmetry_space_group_name_H-M   C2/c
_cell_length_a   17.38023674
_cell_length_b   10.40627549
_cell_length_c   10.63557626
_cell_angle_alpha   90.00000000
_cell_angle_beta   45.03943451
_cell_angle_gamma   90.00000000
_symmetry_Int_Tables_number   15
_chemical_formula_moiety   'C3 H2 N4 O4'
_chemical_formula_sum   'H16 C24 N32 O32'
_cell_volume   1361.11787595
_cell_formula_units_Z   8
loop_
 _symmetry_equiv_pos_site_id
 _symmetry_equiv_pos_as_xyz
  1  'x, y, z'
  2  '-x, -y, -z'
  3  '-x, y, -z+1/2'
  4  'x, -y, z+1/2'
  5  'x+1/2, y+1/2, z'
  6  '-x+1/2, -y+1/2, -z'
  7  '-x+1/2, y+1/2, -z+1/2'
  8  'x+1/2, -y+1/2, z+1/2'
loop_
 _atom_site_type_symbol
 _atom_site_label
 _atom_site_symmetry_multiplicity
 _atom_site_fract_x
 _atom_site_fract_y
 _atom_site_fract_z
 _atom_site_occupancy
  H  H0  8  0.13656377  0.37788349  0.27768539  1
  H  H1  8  0.13946659  0.37709953  -0.23002434  1
  C  C2  8  0.13177097  0.39684649  0.48551726  1
  C  C3  8  0.13377138  0.40258757  -0.01122536  1
  C  C4  8  0.13717505  0.43456090  -0.14231544  1
  N  N5  8  0.13032230  0.50740682  0.06796257  1
  N  N6  8  0.13042610  0.73740475  0.02110727  1
  N  N7  8  0.13428820  0.27461328  0.03827100  1
  N  N8  8  0.13535402  0.56423115  -0.14139625  1
  O  O9  8  0.12488865  0.76395223  0.14046335  1
  O  O10  8  0.12560129  0.26085389  0.16422620  1
  O  O11  8  0.13538183  0.18499209  0.42823416  1
  O  O12  8  0.14336320  0.18548672  -0.04706995  1
