###############################################################################################
#
# CIF file generated by modified CIFWriter class 
# in pymatgen (v2025.03.10) https://pymatgen.org/
#
###############################################################################################
data_PBE+MBD_tight_3387ef49ef75f2a
_symmetry_space_group_name_H-M   P4_2/n
_cell_length_a   8.35491449
_cell_length_b   8.35491449
_cell_length_c   20.02840833
_cell_angle_alpha   90.00000000
_cell_angle_beta   90.00000000
_cell_angle_gamma   90.00000000
_symmetry_Int_Tables_number   86
_chemical_formula_moiety   'C3 H2 N4 O4'
_chemical_formula_sum   'H16 C24 N32 O32'
_cell_volume   1398.07495475
_cell_formula_units_Z   8
loop_
 _symmetry_equiv_pos_site_id
 _symmetry_equiv_pos_as_xyz
  1  'x, y, z'
  2  '-y+1/2, x+1/2, z+1/2'
  3  '-x, -y, z'
  4  'y+1/2, -x+1/2, z+1/2'
  5  '-x+1/2, -y+1/2, -z+1/2'
  6  'y, -x, -z'
  7  'x+1/2, y+1/2, -z+1/2'
  8  '-y, x, -z'
loop_
 _atom_site_type_symbol
 _atom_site_label
 _atom_site_symmetry_multiplicity
 _atom_site_fract_x
 _atom_site_fract_y
 _atom_site_fract_z
 _atom_site_occupancy
  H  H0  8  0.07628946  0.68241956  0.27296039  1
  H  H1  8  0.10398864  0.65712489  0.14550423  1
  C  C2  8  -0.10051043  0.65628959  0.74732610  1
  C  C3  8  0.01292498  0.76591281  0.76968205  1
  C  C4  8  0.02602702  0.77519287  0.66545046  1
  N  N5  8  -0.08964463  0.66483360  0.67966345  1
  N  N6  8  0.04723873  0.80453626  0.83845627  1
  N  N7  8  0.07436153  0.80755985  0.59709248  1
  N  N8  8  0.09111523  0.83893007  0.71875436  1
  O  O9  8  -0.03633191  0.73989044  0.88109393  1
  O  O10  8  0.01632457  0.71869740  0.55454218  1
  O  O11  8  0.08216933  0.16917399  0.41145247  1
  O  O12  8  0.09931818  0.15710500  0.15053500  1
