###############################################################################################
#
# CIF file generated by modified CIFWriter class 
# in pymatgen (v2025.03.10) https://pymatgen.org/
#
###############################################################################################
data_PBE+MBD_tight_33fd4018d8bd5ad
_symmetry_space_group_name_H-M   P4_32_12
_cell_length_a   10.70205891
_cell_length_b   10.70205891
_cell_length_c   12.94997436
_cell_angle_alpha   90.00000000
_cell_angle_beta   90.00000000
_cell_angle_gamma   90.00000000
_symmetry_Int_Tables_number   96
_chemical_formula_moiety   'C3 H2 N4 O4'
_chemical_formula_sum   'H16 C24 N32 O32'
_cell_volume   1483.21320441
_cell_formula_units_Z   8
loop_
 _symmetry_equiv_pos_site_id
 _symmetry_equiv_pos_as_xyz
  1  'x, y, z'
  2  '-y+1/2, x+1/2, z+3/4'
  3  '-x, -y, z+1/2'
  4  'y+1/2, -x+1/2, z+1/4'
  5  'x+1/2, -y+1/2, -z+1/4'
  6  '-y, -x, -z+1/2'
  7  '-x+1/2, y+1/2, -z+3/4'
  8  'y, x, -z'
loop_
 _atom_site_type_symbol
 _atom_site_label
 _atom_site_symmetry_multiplicity
 _atom_site_fract_x
 _atom_site_fract_y
 _atom_site_fract_z
 _atom_site_occupancy
  H  H0  8  -0.15667913  0.73724172  0.13401342  1
  H  H1  8  -0.04194070  0.20996067  0.90187507  1
  C  C2  8  -0.12215951  0.64219652  0.12692599  1
  C  C3  8  -0.00394047  0.59213649  0.11011539  1
  C  C4  8  0.06214188  0.37829534  0.87541667  1
  N  N5  8  -0.17446544  0.31289506  0.12844571  1
  N  N6  8  -0.04058221  0.30339799  0.88615659  1
  N  N7  8  -0.00381411  0.46548942  0.10910171  1
  N  N8  8  0.10823056  0.66483544  0.09866798  1
  O  O9  8  -0.11020725  0.70852207  0.83876347  1
  O  O10  8  -0.10265210  0.22448450  0.11862328  1
  O  O11  8  0.09449065  0.78023018  0.10189823  1
  O  O12  8  0.19198939  0.21089169  0.88888519  1
