###############################################################################################
#
# CIF file generated by modified CIFWriter class 
# in pymatgen (v2025.03.10) https://pymatgen.org/
#
###############################################################################################
data_PBE+MBD_tight_3410c8549608b60
_symmetry_space_group_name_H-M   P4_32_12
_cell_length_a   8.27164335
_cell_length_b   8.27164335
_cell_length_c   18.59618075
_cell_angle_alpha   90.00000000
_cell_angle_beta   90.00000000
_cell_angle_gamma   90.00000000
_symmetry_Int_Tables_number   96
_chemical_formula_moiety   'C3 H2 N4 O4'
_chemical_formula_sum   'H16 C24 N32 O32'
_cell_volume   1272.35224309
_cell_formula_units_Z   8
loop_
 _symmetry_equiv_pos_site_id
 _symmetry_equiv_pos_as_xyz
  1  'x, y, z'
  2  '-y+1/2, x+1/2, z+3/4'
  3  '-x, -y, z+1/2'
  4  'y+1/2, -x+1/2, z+1/4'
  5  'x+1/2, -y+1/2, -z+1/4'
  6  '-y, -x, -z+1/2'
  7  '-x+1/2, y+1/2, -z+3/4'
  8  'y, x, -z'
loop_
 _atom_site_type_symbol
 _atom_site_label
 _atom_site_symmetry_multiplicity
 _atom_site_fract_x
 _atom_site_fract_y
 _atom_site_fract_z
 _atom_site_occupancy
  H  H0  8  -0.01494604  0.32395929  0.78274786  1
  H  H1  8  0.12200281  0.78367577  0.56719489  1
  C  C2  8  0.00463901  0.14598186  0.87466352  1
  C  C3  8  0.05158829  0.26229345  0.82471038  1
  C  C4  8  0.19298949  0.24873424  0.10376760  1
  N  N5  8  0.08183078  -0.15711818  0.11576172  1
  N  N6  8  0.09703021  0.69886788  0.81818088  1
  N  N7  8  0.10244953  0.12752101  0.08159872  1
  N  N8  8  0.20931187  0.70962281  0.58970679  1
  O  O9  8  -0.00237076  0.79686973  0.84131563  1
  O  O10  8  0.02142063  -0.19046428  0.05728116  1
  O  O11  8  0.07725245  0.60892732  0.76580679  1
  O  O12  8  0.09555148  -0.25019733  0.16735809  1
