###############################################################################################
#
# CIF file generated by modified CIFWriter class 
# in pymatgen (v2025.03.10) https://pymatgen.org/
#
###############################################################################################
data_PBE+MBD_tight_347ad18b354414b
_symmetry_space_group_name_H-M   Pbcn
_cell_length_a   13.82204924
_cell_length_b   10.92419632
_cell_length_c   9.88276243
_cell_angle_alpha   90.00000000
_cell_angle_beta   90.00000000
_cell_angle_gamma   90.00000000
_symmetry_Int_Tables_number   60
_chemical_formula_moiety   'C3 H2 N4 O4'
_chemical_formula_sum   'H16 C24 N32 O32'
_cell_volume   1492.24553447
_cell_formula_units_Z   8
loop_
 _symmetry_equiv_pos_site_id
 _symmetry_equiv_pos_as_xyz
  1  'x, y, z'
  2  '-x, -y, -z'
  3  '-x+1/2, -y+1/2, z+1/2'
  4  'x+1/2, y+1/2, -z+1/2'
  5  'x+1/2, -y+1/2, -z'
  6  '-x+1/2, y+1/2, z'
  7  '-x, y, -z+1/2'
  8  'x, -y, z+1/2'
loop_
 _atom_site_type_symbol
 _atom_site_label
 _atom_site_symmetry_multiplicity
 _atom_site_fract_x
 _atom_site_fract_y
 _atom_site_fract_z
 _atom_site_occupancy
  H  H0  8  0.05058115  0.30873679  0.45775869  1
  H  H1  8  0.15895987  0.15451934  0.57755977  1
  C  C2  8  0.17961507  0.41938991  0.43741211  1
  C  C3  8  0.18257993  0.24234022  0.53883050  1
  C  C4  8  0.22660601  0.20215469  0.03317618  1
  N  N5  8  0.12324802  0.32259520  0.47675575  1
  N  N6  8  0.13830173  0.47518223  -0.12867567  1
  N  N7  8  0.13899551  0.25598191  0.08174888  1
  N  N8  8  0.22871461  0.09251817  -0.03045371  1
  O  O9  8  0.04934956  0.46834293  -0.12834946  1
  O  O10  8  0.06109665  0.20523337  0.05468214  1
  O  O11  8  0.14654884  0.35288801  0.14574332  1
  O  O12  8  0.19454918  0.39977752  -0.17804779  1
