###############################################################################################
#
# CIF file generated by modified CIFWriter class 
# in pymatgen (v2025.03.10) https://pymatgen.org/
#
###############################################################################################
data_PBE+MBD_tight_34ad7124dd6271c
_symmetry_space_group_name_H-M   P4_32_12
_cell_length_a   7.24502375
_cell_length_b   7.24502375
_cell_length_c   25.80090541
_cell_angle_alpha   90.00000000
_cell_angle_beta   90.00000000
_cell_angle_gamma   90.00000000
_symmetry_Int_Tables_number   96
_chemical_formula_moiety   'C3 H2 N4 O4'
_chemical_formula_sum   'H16 C24 N32 O32'
_cell_volume   1354.29904774
_cell_formula_units_Z   8
loop_
 _symmetry_equiv_pos_site_id
 _symmetry_equiv_pos_as_xyz
  1  'x, y, z'
  2  '-y+1/2, x+1/2, z+3/4'
  3  '-x, -y, z+1/2'
  4  'y+1/2, -x+1/2, z+1/4'
  5  'x+1/2, -y+1/2, -z+1/4'
  6  '-y, -x, -z+1/2'
  7  '-x+1/2, y+1/2, -z+3/4'
  8  'y, x, -z'
loop_
 _atom_site_type_symbol
 _atom_site_label
 _atom_site_symmetry_multiplicity
 _atom_site_fract_x
 _atom_site_fract_y
 _atom_site_fract_z
 _atom_site_occupancy
  H  H0  8  0.05407727  0.27436225  0.73347591  1
  H  H1  8  0.07518755  0.31240105  0.42368656  1
  C  C2  8  -0.01921963  0.54597413  0.37923332  1
  C  C3  8  0.08426529  0.35224354  0.69870831  1
  C  C4  8  0.10204930  0.75063080  0.42474979  1
  N  N5  8  -0.05213063  0.61432647  0.58834296  1
  N  N6  8  -0.04597231  0.43169389  0.66865549  1
  N  N7  8  -0.00141521  0.72589966  0.38161557  1
  N  N8  8  0.06866438  0.84370517  0.05853395  1
  O  O9  8  -0.09465645  0.27861956  0.33790371  1
  O  O10  8  -0.06328982  0.89527376  0.08548134  1
  O  O11  8  0.03975359  0.70453400  0.55735610  1
  O  O12  8  0.05624281  0.74749234  0.01918952  1
