###############################################################################################
#
# CIF file generated by modified CIFWriter class 
# in pymatgen (v2025.03.10) https://pymatgen.org/
#
###############################################################################################
data_PBE+MBD_tight_3567f4176f52e26
_symmetry_space_group_name_H-M   Pcca
_cell_length_a   10.66131642
_cell_length_b   10.58887149
_cell_length_c   13.82204475
_cell_angle_alpha   90.00000000
_cell_angle_beta   90.00000000
_cell_angle_gamma   90.00000000
_symmetry_Int_Tables_number   54
_chemical_formula_moiety   'C3 H2 N4 O4'
_chemical_formula_sum   'H16 C24 N32 O32'
_cell_volume   1560.38873158
_cell_formula_units_Z   8
loop_
 _symmetry_equiv_pos_site_id
 _symmetry_equiv_pos_as_xyz
  1  'x, y, z'
  2  '-x, -y, -z'
  3  '-x+1/2, -y, z'
  4  'x+1/2, y, -z'
  5  'x+1/2, -y, -z+1/2'
  6  '-x+1/2, y, z+1/2'
  7  '-x, y, -z+1/2'
  8  'x, -y, z+1/2'
loop_
 _atom_site_type_symbol
 _atom_site_label
 _atom_site_symmetry_multiplicity
 _atom_site_fract_x
 _atom_site_fract_y
 _atom_site_fract_z
 _atom_site_occupancy
  H  H0  8  0.03128497  0.00770539  0.07745110  1
  H  H1  8  0.14290874  -0.00154995  0.23881699  1
  C  C2  8  0.06577008  0.20973046  0.08179720  1
  C  C3  8  0.12977302  0.08365793  0.19642868  1
  C  C4  8  0.16591115  0.20843882  0.21152046  1
  N  N5  8  0.00305926  0.24669813  -0.00649413  1
  N  N6  8  0.06542082  0.08661728  0.11213797  1
  N  N7  8  0.12529163  0.28646867  0.14082244  1
  N  N8  8  0.24024097  0.25080618  0.29312981  1
  O  O9  8  -0.05016455  0.15880487  -0.05173965  1
  O  O10  8  0.00372871  0.35675812  -0.03025303  1
  O  O11  8  0.21418147  0.16393401  0.84356007  1
  O  O12  8  0.24721828  0.36343609  0.80745111  1
