###############################################################################################
#
# CIF file generated by modified CIFWriter class 
# in pymatgen (v2025.03.10) https://pymatgen.org/
#
###############################################################################################
data_PBE+MBD_tight_360863b3e0eebf6
_symmetry_space_group_name_H-M   C2/c
_cell_length_a   12.42850609
_cell_length_b   10.22731789
_cell_length_c   10.25904733
_cell_angle_alpha   90.00000000
_cell_angle_beta   85.41593418
_cell_angle_gamma   90.00000000
_symmetry_Int_Tables_number   15
_chemical_formula_moiety   'C3 H2 N4 O4'
_chemical_formula_sum   'H16 C24 N32 O32'
_cell_volume   1299.85900023
_cell_formula_units_Z   8
loop_
 _symmetry_equiv_pos_site_id
 _symmetry_equiv_pos_as_xyz
  1  'x, y, z'
  2  '-x, -y, -z'
  3  '-x, y, -z+1/2'
  4  'x, -y, z+1/2'
  5  'x+1/2, y+1/2, z'
  6  '-x+1/2, -y+1/2, -z'
  7  '-x+1/2, y+1/2, -z+1/2'
  8  'x+1/2, -y+1/2, z+1/2'
loop_
 _atom_site_type_symbol
 _atom_site_label
 _atom_site_symmetry_multiplicity
 _atom_site_fract_x
 _atom_site_fract_y
 _atom_site_fract_z
 _atom_site_occupancy
  H  H0  8  0.10639766  0.67920721  0.62858279  1
  H  H1  8  0.11186413  0.91778486  0.55377275  1
  C  C2  8  0.11225268  0.71099696  0.52734423  1
  C  C3  8  0.12042228  0.35817934  0.90940951  1
  C  C4  8  0.12189129  0.83867434  0.35691158  1
  N  N5  8  0.11375176  0.83793466  0.49094630  1
  N  N6  8  0.12105801  0.95790765  0.28430523  1
  N  N7  8  0.12151115  0.49918629  0.89642410  1
  N  N8  8  0.12606275  0.72114369  0.30442522  1
  O  O9  8  0.11513095  0.43731767  0.49879579  1
  O  O10  8  0.11591991  1.06154287  0.34573174  1
  O  O11  8  0.12349274  0.05241420  0.66305136  1
  O  O12  8  0.12862623  0.45491340  0.28498509  1
