###############################################################################################
#
# CIF file generated by modified CIFWriter class 
# in pymatgen (v2025.03.10) https://pymatgen.org/
#
###############################################################################################
data_PBE+MBD_tight_365b0d2f4cd2ff0
_symmetry_space_group_name_H-M   Pbca
_cell_length_a   15.01469531
_cell_length_b   6.54716984
_cell_length_c   13.91222952
_cell_angle_alpha   90.00000000
_cell_angle_beta   90.00000000
_cell_angle_gamma   90.00000000
_symmetry_Int_Tables_number   61
_chemical_formula_moiety   'C3 H2 N4 O4'
_chemical_formula_sum   'H16 C24 N32 O32'
_cell_volume   1367.62447550
_cell_formula_units_Z   8
loop_
 _symmetry_equiv_pos_site_id
 _symmetry_equiv_pos_as_xyz
  1  'x, y, z'
  2  '-x, -y, -z'
  3  'x+1/2, -y+1/2, -z'
  4  '-x+1/2, y+1/2, z'
  5  '-x, y+1/2, -z+1/2'
  6  'x, -y+1/2, z+1/2'
  7  '-x+1/2, -y, z+1/2'
  8  'x+1/2, y, -z+1/2'
loop_
 _atom_site_type_symbol
 _atom_site_label
 _atom_site_symmetry_multiplicity
 _atom_site_fract_x
 _atom_site_fract_y
 _atom_site_fract_z
 _atom_site_occupancy
  H  H0  8  0.07412399  0.00668869  0.79066229  1
  H  H1  8  0.11571727  0.20987432  0.94191496  1
  C  C2  8  0.09156997  0.16695048  0.79169790  1
  C  C3  8  0.10016887  0.18913109  0.21848418  1
  C  C4  8  0.13716142  0.03799242  0.34406558  1
  N  N5  8  0.08149096  0.22664143  0.11902085  1
  N  N6  8  0.11650285  0.23259306  0.37205924  1
  N  N7  8  0.12853547  0.00564417  0.25134862  1
  N  N8  8  0.16647167  -0.11418634  0.41228057  1
  O  O9  8  0.04159568  0.11408675  0.59903427  1
  O  O10  8  0.10631158  0.09758132  0.05924544  1
  O  O11  8  0.17177078  -0.29183946  0.38287418  1
  O  O12  8  0.18471818  -0.05450697  0.49362456  1
