###############################################################################################
#
# CIF file generated by modified CIFWriter class 
# in pymatgen (v2025.03.10) https://pymatgen.org/
#
###############################################################################################
data_PBE+MBD_tight_36fae29ba76398a
_symmetry_space_group_name_H-M   Ama2
_cell_length_a   25.19944147
_cell_length_b   8.63139277
_cell_length_c   6.42329797
_cell_angle_alpha   90.00000000
_cell_angle_beta   90.00000000
_cell_angle_gamma   90.00000000
_symmetry_Int_Tables_number   40
_chemical_formula_moiety   'C3 H2 N4 O4'
_chemical_formula_sum   'H16 C24 N32 O32'
_cell_volume   1397.10762709
_cell_formula_units_Z   8
loop_
 _symmetry_equiv_pos_site_id
 _symmetry_equiv_pos_as_xyz
  1  'x, y, z'
  2  '-x, -y, z'
  3  '-x+1/2, y, z'
  4  'x+1/2, -y, z'
  5  'x, y+1/2, z+1/2'
  6  '-x, -y+1/2, z+1/2'
  7  '-x+1/2, y+1/2, z+1/2'
  8  'x+1/2, -y+1/2, z+1/2'
loop_
 _atom_site_type_symbol
 _atom_site_label
 _atom_site_symmetry_multiplicity
 _atom_site_fract_x
 _atom_site_fract_y
 _atom_site_fract_z
 _atom_site_occupancy
  H  H0  8  0.08008687  -0.00835794  -0.87997624  1
  H  H1  8  0.14208802  -0.16853297  -0.65365298  1
  C  C2  8  0.08681294  0.16806907  -0.64220472  1
  C  C3  8  0.12828052  -0.05270925  -0.61584678  1
  C  C4  8  0.13764823  0.04485954  -0.44671677  1
  N  N5  8  0.05509429  0.28788150  -0.73287325  1
  N  N6  8  0.09516192  0.02907393  -0.73942788  1
  N  N7  8  0.11205713  0.18155852  -0.46379174  1
  N  N8  8  0.16903361  0.00574693  -0.26580633  1
  O  O9  8  0.03223541  0.25658485  -0.89770401  1
  O  O10  8  0.05370560  0.41541251  -0.64471881  1
  O  O11  8  0.17429710  0.10459654  -0.12833297  1
  O  O12  8  0.18761965  -0.12628135  -0.26102032  1
