###############################################################################################
#
# CIF file generated by modified CIFWriter class 
# in pymatgen (v2025.03.10) https://pymatgen.org/
#
###############################################################################################
data_PBE+MBD_tight_3b287fd8efbceb6
_symmetry_space_group_name_H-M   Pcca
_cell_length_a   22.17341887
_cell_length_b   6.23838487
_cell_length_c   10.00925268
_cell_angle_alpha   90.00000000
_cell_angle_beta   90.00000000
_cell_angle_gamma   90.00000000
_symmetry_Int_Tables_number   54
_chemical_formula_moiety   'C3 H2 N4 O4'
_chemical_formula_sum   'H16 C24 N32 O32'
_cell_volume   1384.54309628
_cell_formula_units_Z   8
loop_
 _symmetry_equiv_pos_site_id
 _symmetry_equiv_pos_as_xyz
  1  'x, y, z'
  2  '-x, -y, -z'
  3  '-x+1/2, -y, z'
  4  'x+1/2, y, -z'
  5  'x+1/2, -y, -z+1/2'
  6  '-x+1/2, y, z+1/2'
  7  '-x, y, -z+1/2'
  8  'x, -y, z+1/2'
loop_
 _atom_site_type_symbol
 _atom_site_label
 _atom_site_symmetry_multiplicity
 _atom_site_fract_x
 _atom_site_fract_y
 _atom_site_fract_z
 _atom_site_occupancy
  H  H0  8  0.20508978  -0.03348811  1.00205623  1
  H  H1  8  0.23059592  0.31041494  1.13693583  1
  C  C2  8  0.11543445  0.13037223  0.98373914  1
  C  C3  8  0.13919121  0.40161767  1.09324729  1
  C  C4  8  0.17510044  0.09900926  1.02125554  1
  N  N5  8  0.08165145  -0.02170133  0.90288096  1
  N  N6  8  0.09316927  0.31782186  1.02861121  1
  N  N7  8  0.13975601  0.39592202  0.66028501  1
  N  N8  8  0.18997971  0.27625825  1.09172476  1
  O  O9  8  0.02915999  0.01545366  0.87771591  1
  O  O10  8  0.09303082  0.29573761  0.67207855  1
  O  O11  8  0.11127006  -0.18079183  0.86565333  1
  O  O12  8  0.19041701  0.33456569  0.70397782  1
