###############################################################################################
#
# CIF file generated by modified CIFWriter class 
# in pymatgen (v2025.03.10) https://pymatgen.org/
#
###############################################################################################
data_PBE+MBD_tight_3f45f6a227c5bed
_symmetry_space_group_name_H-M   Iba2
_cell_length_a   13.21728708
_cell_length_b   11.50605200
_cell_length_c   9.47746851
_cell_angle_alpha   90.00000000
_cell_angle_beta   90.00000000
_cell_angle_gamma   90.00000000
_symmetry_Int_Tables_number   45
_chemical_formula_moiety   'C3 H2 N4 O4'
_chemical_formula_sum   'H16 C24 N32 O32'
_cell_volume   1441.32196612
_cell_formula_units_Z   8
loop_
 _symmetry_equiv_pos_site_id
 _symmetry_equiv_pos_as_xyz
  1  'x, y, z'
  2  '-x, -y, z'
  3  'x, -y, z+1/2'
  4  '-x, y, z+1/2'
  5  'x+1/2, y+1/2, z+1/2'
  6  '-x+1/2, -y+1/2, z+1/2'
  7  'x+1/2, -y+1/2, z'
  8  '-x+1/2, y+1/2, z'
loop_
 _atom_site_type_symbol
 _atom_site_label
 _atom_site_symmetry_multiplicity
 _atom_site_fract_x
 _atom_site_fract_y
 _atom_site_fract_z
 _atom_site_occupancy
  H  H0  8  0.08508649  0.26564894  0.21014491  1
  H  H1  8  0.24362152  0.18343497  0.33188182  1
  C  C2  8  0.00868169  0.19143772  0.40505080  1
  C  C3  8  0.08555185  0.22054108  0.31026679  1
  C  C4  8  0.14128197  0.12560657  0.49339946  1
  N  N5  8  -0.09668568  0.21710020  0.39153864  1
  N  N6  8  0.04384256  0.13277685  0.51863598  1
  N  N7  8  0.17004246  0.17681726  0.36936036  1
  N  N8  8  0.21439771  0.07219582  0.58604227  1
  O  O9  8  -0.15544605  0.17714150  0.47995970  1
  O  O10  8  -0.12302358  0.27972318  0.29048246  1
  O  O11  8  0.18417442  0.03433987  0.69967599  1
  O  O12  8  0.19711076  0.43020250  1.04339423  1
