###############################################################################################
#
# CIF file generated by modified CIFWriter class 
# in pymatgen (v2025.03.10) https://pymatgen.org/
#
###############################################################################################
data_PBE+MBD_tight_403a9608652dbd0
_symmetry_space_group_name_H-M   C2/m
_cell_length_a   9.84697427
_cell_length_b   19.12820652
_cell_length_c   9.37260263
_cell_angle_alpha   90.00000000
_cell_angle_beta   64.68283178
_cell_angle_gamma   90.00000000
_symmetry_Int_Tables_number   12
_chemical_formula_moiety   'C3 H2 N4 O4'
_chemical_formula_sum   'H16 C24 N32 O32'
_cell_volume   1595.81965238
_cell_formula_units_Z   8
loop_
 _symmetry_equiv_pos_site_id
 _symmetry_equiv_pos_as_xyz
  1  'x, y, z'
  2  '-x, -y, -z'
  3  '-x, y, -z'
  4  'x, -y, z'
  5  'x+1/2, y+1/2, z'
  6  '-x+1/2, -y+1/2, -z'
  7  '-x+1/2, y+1/2, -z'
  8  'x+1/2, -y+1/2, z'
loop_
 _atom_site_type_symbol
 _atom_site_label
 _atom_site_symmetry_multiplicity
 _atom_site_fract_x
 _atom_site_fract_y
 _atom_site_fract_z
 _atom_site_occupancy
  H  H0  8  -0.01780334  0.76021681  0.72448001  1
  H  H1  8  0.01320473  0.87586480  0.84474955  1
  C  C2  8  0.09448969  0.83360220  0.80900210  1
  C  C3  8  0.20208926  0.26554817  0.70983804  1
  C  C4  8  0.22743928  0.82439027  0.82463427  1
  N  N5  8  0.08066875  0.22487767  0.73477254  1
  N  N6  8  0.20538307  0.73717642  0.23837144  1
  N  N7  8  0.21427374  0.63021206  0.09185597  1
  N  N8  8  0.22721564  0.33242970  0.63081699  1
  O  O9  8  0.09742831  0.64785351  0.08398500  1
  O  O10  8  0.13997065  0.65203474  0.57248980  1
  O  O11  8  0.16617988  0.86726119  0.37386685  1
  O  O12  8  0.21000725  0.07791987  0.97027901  1
