###############################################################################################
#
# CIF file generated by modified CIFWriter class 
# in pymatgen (v2025.03.10) https://pymatgen.org/
#
###############################################################################################
data_PBE+MBD_tight_408492c24034b66
_symmetry_space_group_name_H-M   Pnna
_cell_length_a   19.43990227
_cell_length_b   8.19843353
_cell_length_c   8.35194436
_cell_angle_alpha   90.00000000
_cell_angle_beta   90.00000000
_cell_angle_gamma   90.00000000
_symmetry_Int_Tables_number   52
_chemical_formula_moiety   'C3 H2 N4 O4'
_chemical_formula_sum   'H16 C24 N32 O32'
_cell_volume   1331.10571950
_cell_formula_units_Z   8
loop_
 _symmetry_equiv_pos_site_id
 _symmetry_equiv_pos_as_xyz
  1  'x, y, z'
  2  '-x, -y, -z'
  3  '-x+1/2, -y, z'
  4  'x+1/2, y, -z'
  5  'x, -y+1/2, -z+1/2'
  6  '-x, y+1/2, z+1/2'
  7  '-x+1/2, y+1/2, -z+1/2'
  8  'x+1/2, -y+1/2, z+1/2'
loop_
 _atom_site_type_symbol
 _atom_site_label
 _atom_site_symmetry_multiplicity
 _atom_site_fract_x
 _atom_site_fract_y
 _atom_site_fract_z
 _atom_site_occupancy
  H  H0  8  -0.11942536  0.09669491  -0.13714753  1
  H  H1  8  0.01126362  0.06643757  -0.17362208  1
  C  C2  8  -0.09575796  0.21743386  0.46756331  1
  C  C3  8  -0.01368408  0.15034929  -0.09156542  1
  C  C4  8  0.01135529  0.23574559  0.48254224  1
  N  N5  8  -0.16542439  0.16557094  0.43070220  1
  N  N6  8  -0.08312993  0.16477851  -0.07935213  1
  N  N7  8  -0.03967847  0.15407746  0.40630059  1
  N  N8  8  0.08279426  0.20615712  0.44657847  1
  O  O9  8  -0.21067975  0.22088963  0.51849723  1
  O  O10  8  -0.17245596  0.07173388  0.31759815  1
  O  O11  8  0.09639235  0.09535079  0.35074176  1
  O  O12  8  0.12506844  0.20519140  -0.01292109  1
