###############################################################################################
#
# CIF file generated by modified CIFWriter class 
# in pymatgen (v2025.03.10) https://pymatgen.org/
#
###############################################################################################
data_PBE+MBD_tight_4652cdb40caeb7a
_symmetry_space_group_name_H-M   Pbcn
_cell_length_a   11.04324105
_cell_length_b   7.06850230
_cell_length_c   15.65170245
_cell_angle_alpha   90.00000000
_cell_angle_beta   90.00000000
_cell_angle_gamma   90.00000000
_symmetry_Int_Tables_number   60
_chemical_formula_moiety   'C3 H2 N4 O4'
_chemical_formula_sum   'H16 C24 N32 O32'
_cell_volume   1221.75897747
_cell_formula_units_Z   8
loop_
 _symmetry_equiv_pos_site_id
 _symmetry_equiv_pos_as_xyz
  1  'x, y, z'
  2  '-x, -y, -z'
  3  '-x+1/2, -y+1/2, z+1/2'
  4  'x+1/2, y+1/2, -z+1/2'
  5  'x+1/2, -y+1/2, -z'
  6  '-x+1/2, y+1/2, z'
  7  '-x, y, -z+1/2'
  8  'x, -y, z+1/2'
loop_
 _atom_site_type_symbol
 _atom_site_label
 _atom_site_symmetry_multiplicity
 _atom_site_fract_x
 _atom_site_fract_y
 _atom_site_fract_z
 _atom_site_occupancy
  H  H0  8  -0.07844118  0.28022942  0.98155379  1
  H  H1  8  -0.03463431  0.11759129  0.83818884  1
  C  C2  8  0.00966548  0.22965233  0.96109420  1
  C  C3  8  0.12299088  0.22817858  1.00001090  1
  C  C4  8  0.14876541  0.09856550  0.88148351  1
  N  N5  8  0.02866113  0.14466478  0.88472780  1
  N  N6  8  0.15045472  0.30478133  1.08330785  1
  N  N7  8  0.20076543  0.00864954  0.80734650  1
  N  N8  8  0.20910125  0.14670247  0.95067983  1
  O  O9  8  0.06505721  0.37354765  1.12343246  1
  O  O10  8  0.13095274  -0.01958615  0.74668108  1
  O  O11  8  0.19197507  0.46494658  0.80991230  1
  O  O12  8  0.24381996  0.20399201  0.60814607  1
