###############################################################################################
#
# CIF file generated by modified CIFWriter class 
# in pymatgen (v2025.03.10) https://pymatgen.org/
#
###############################################################################################
data_PBE+MBD_tight_4905810358a1fde
_symmetry_space_group_name_H-M   P4_32_12
_cell_length_a   9.12673609
_cell_length_b   9.12673609
_cell_length_c   17.97826432
_cell_angle_alpha   90.00000000
_cell_angle_beta   90.00000000
_cell_angle_gamma   90.00000000
_symmetry_Int_Tables_number   96
_chemical_formula_moiety   'C3 H2 N4 O4'
_chemical_formula_sum   'H16 C24 N32 O32'
_cell_volume   1497.54108462
_cell_formula_units_Z   8
loop_
 _symmetry_equiv_pos_site_id
 _symmetry_equiv_pos_as_xyz
  1  'x, y, z'
  2  '-y+1/2, x+1/2, z+3/4'
  3  '-x, -y, z+1/2'
  4  'y+1/2, -x+1/2, z+1/4'
  5  'x+1/2, -y+1/2, -z+1/4'
  6  '-y, -x, -z+1/2'
  7  '-x+1/2, y+1/2, -z+3/4'
  8  'y, x, -z'
loop_
 _atom_site_type_symbol
 _atom_site_label
 _atom_site_symmetry_multiplicity
 _atom_site_fract_x
 _atom_site_fract_y
 _atom_site_fract_z
 _atom_site_occupancy
  H  H0  8  -0.10222748  0.11937968  0.50317268  1
  H  H1  8  -0.08490894  0.38432426  0.55072912  1
  C  C2  8  -0.05176592  0.20835088  0.47251175  1
  C  C3  8  0.01395547  0.21456128  0.40265573  1
  C  C4  8  0.02192511  0.42865207  0.44522984  1
  N  N5  8  -0.04501654  0.34718548  0.49857905  1
  N  N6  8  0.03769475  0.09481850  0.35165122  1
  N  N7  8  0.04897574  0.58337991  0.45320522  1
  N  N8  8  0.05904450  0.35188284  0.38593782  1
  O  O9  8  0.00846327  0.64069316  0.51206925  1
  O  O10  8  0.00900732  -0.02923503  0.37493794  1
  O  O11  8  0.08598538  0.12488685  0.28954124  1
  O  O12  8  0.10982194  0.64619172  0.40112927  1
