###############################################################################################
#
# CIF file generated by modified CIFWriter class 
# in pymatgen (v2025.03.10) https://pymatgen.org/
#
###############################################################################################
data_PBE+MBD_tight_4a5052ea346b35b
_symmetry_space_group_name_H-M   Pbca
_cell_length_a   10.02895544
_cell_length_b   14.08818844
_cell_length_c   8.81065477
_cell_angle_alpha   90.00000000
_cell_angle_beta   90.00000000
_cell_angle_gamma   90.00000000
_symmetry_Int_Tables_number   61
_chemical_formula_moiety   'C3 H2 N4 O4'
_chemical_formula_sum   'H16 C24 N32 O32'
_cell_volume   1244.85577400
_cell_formula_units_Z   8
loop_
 _symmetry_equiv_pos_site_id
 _symmetry_equiv_pos_as_xyz
  1  'x, y, z'
  2  '-x, -y, -z'
  3  '-x, y+1/2, -z+1/2'
  4  'x, -y+1/2, z+1/2'
  5  '-x+1/2, -y, z+1/2'
  6  'x+1/2, y, -z+1/2'
  7  'x+1/2, -y+1/2, -z'
  8  '-x+1/2, y+1/2, z'
loop_
 _atom_site_type_symbol
 _atom_site_label
 _atom_site_symmetry_multiplicity
 _atom_site_fract_x
 _atom_site_fract_y
 _atom_site_fract_z
 _atom_site_occupancy
  H  H0  8  -0.19284963  0.68615275  0.44798030  1
  H  H1  8  0.24135438  0.55350391  0.23921358  1
  C  C2  8  -0.12419120  0.63712443  0.39391000  1
  C  C3  8  -0.04760985  0.52405673  0.24966679  1
  C  C4  8  0.01425541  0.63166170  0.39738208  1
  N  N5  8  -0.16161381  0.56679988  0.29873770  1
  N  N6  8  -0.04996562  0.44317732  0.15048758  1
  N  N7  8  0.06205051  0.56195943  0.30631560  1
  N  N8  8  0.10171933  0.69054002  0.48597384  1
  O  O9  8  -0.16116992  0.40971962  0.12193093  1
  O  O10  8  0.05105570  0.73603076  0.59092853  1
  O  O11  8  0.05758806  0.41365547  0.10245659  1
  O  O12  8  0.22101550  0.69110584  0.45139720  1
