###############################################################################################
#
# CIF file generated by modified CIFWriter class 
# in pymatgen (v2025.03.10) https://pymatgen.org/
#
###############################################################################################
data_PBE+MBD_tight_4e38c2bdc97697a
_symmetry_space_group_name_H-M   I4_1
_cell_length_a   13.86905554
_cell_length_b   13.86905554
_cell_length_c   7.75397312
_cell_angle_alpha   90.00000000
_cell_angle_beta   90.00000000
_cell_angle_gamma   90.00000000
_symmetry_Int_Tables_number   80
_chemical_formula_moiety   'C3 H2 N4 O4'
_chemical_formula_sum   'H16 C24 N32 O32'
_cell_volume   1491.48216966
_cell_formula_units_Z   8
loop_
 _symmetry_equiv_pos_site_id
 _symmetry_equiv_pos_as_xyz
  1  'x, y, z'
  2  '-y, x+1/2, z+1/4'
  3  '-x+1/2, -y+1/2, z+1/2'
  4  'y+1/2, -x, z+3/4'
  5  'x+1/2, y+1/2, z+1/2'
  6  '-y+1/2, x, z+3/4'
  7  '-x, -y, z'
  8  'y, -x+1/2, z+1/4'
loop_
 _atom_site_type_symbol
 _atom_site_label
 _atom_site_symmetry_multiplicity
 _atom_site_fract_x
 _atom_site_fract_y
 _atom_site_fract_z
 _atom_site_occupancy
  H  H0  8  0.04041138  0.57055990  0.06993710  1
  H  H1  8  0.09627800  0.60193059  0.37930424  1
  C  C2  8  0.00425624  0.72898259  0.08057295  1
  C  C3  8  0.03530298  0.63904861  0.13573389  1
  C  C4  8  0.05195203  0.74915169  0.33496781  1
  N  N5  8  -0.03765317  0.75200395  -0.08482921  1
  N  N6  8  0.01573766  0.79744762  0.20395487  1
  N  N7  8  0.06555969  0.65356410  0.30007161  1
  N  N8  8  0.07611809  0.79256786  0.49872212  1
  O  O9  8  -0.05442522  0.68441288  -0.18280976  1
  O  O10  8  -0.05402845  0.83807716  -0.11498703  1
  O  O11  8  0.04862841  0.87520462  0.52392314  1
  O  O12  8  0.12324779  0.74200108  0.59981065  1
