###############################################################################################
#
# CIF file generated by modified CIFWriter class 
# in pymatgen (v2025.03.10) https://pymatgen.org/
#
###############################################################################################
data_PBE+MBD_tight_520119ad190db58
_symmetry_space_group_name_H-M   Pbcn
_cell_length_a   17.74880479
_cell_length_b   7.16735420
_cell_length_c   10.11541792
_cell_angle_alpha   90.00000000
_cell_angle_beta   90.00000000
_cell_angle_gamma   90.00000000
_symmetry_Int_Tables_number   60
_chemical_formula_moiety   'C3 H2 N4 O4'
_chemical_formula_sum   'H16 C24 N32 O32'
_cell_volume   1286.80224740
_cell_formula_units_Z   8
loop_
 _symmetry_equiv_pos_site_id
 _symmetry_equiv_pos_as_xyz
  1  'x, y, z'
  2  '-x, -y, -z'
  3  '-x+1/2, -y+1/2, z+1/2'
  4  'x+1/2, y+1/2, -z+1/2'
  5  'x+1/2, -y+1/2, -z'
  6  '-x+1/2, y+1/2, z'
  7  '-x, y, -z+1/2'
  8  'x, -y, z+1/2'
loop_
 _atom_site_type_symbol
 _atom_site_label
 _atom_site_symmetry_multiplicity
 _atom_site_fract_x
 _atom_site_fract_y
 _atom_site_fract_z
 _atom_site_occupancy
  H  H0  8  0.17702087  0.16784949  0.42685265  1
  H  H1  8  0.17796131  0.32558338  -0.07029615  1
  C  C2  8  0.18975338  0.21986468  0.12873315  1
  C  C3  8  0.19247290  0.27996604  0.63482482  1
  C  C4  8  0.21111425  0.21166157  0.51041855  1
  N  N5  8  0.11080780  0.19947061  0.16380635  1
  N  N6  8  0.11735326  0.30768767  0.68608310  1
  N  N7  8  0.21234771  0.28786262  0.00893878  1
  N  N8  8  0.24599861  0.17666245  0.20767118  1
  O  O9  8  0.06475689  0.26622986  0.61391053  1
  O  O10  8  0.06513796  0.26681807  0.08615673  1
  O  O11  8  0.09697674  0.11657725  0.26774437  1
  O  O12  8  0.11152205  0.37429636  0.79941702  1
