###############################################################################################
#
# CIF file generated by modified CIFWriter class 
# in pymatgen (v2025.03.10) https://pymatgen.org/
#
###############################################################################################
data_PBE+MBD_tight_5223231ad5359e
_symmetry_space_group_name_H-M   I4
_cell_length_a   14.85324899
_cell_length_b   14.85324899
_cell_length_c   7.00496199
_cell_angle_alpha   90.00000000
_cell_angle_beta   90.00000000
_cell_angle_gamma   90.00000000
_symmetry_Int_Tables_number   79
_chemical_formula_moiety   'C3 H2 N4 O4'
_chemical_formula_sum   'H16 C24 N32 O32'
_cell_volume   1545.42774742
_cell_formula_units_Z   8
loop_
 _symmetry_equiv_pos_site_id
 _symmetry_equiv_pos_as_xyz
  1  'x, y, z'
  2  '-y, x, z'
  3  '-x, -y, z'
  4  'y, -x, z'
  5  'x+1/2, y+1/2, z+1/2'
  6  '-y+1/2, x+1/2, z+1/2'
  7  '-x+1/2, -y+1/2, z+1/2'
  8  'y+1/2, -x+1/2, z+1/2'
loop_
 _atom_site_type_symbol
 _atom_site_label
 _atom_site_symmetry_multiplicity
 _atom_site_fract_x
 _atom_site_fract_y
 _atom_site_fract_z
 _atom_site_occupancy
  H  H0  8  0.04349199  0.73769680  0.25660877  1
  H  H1  8  0.12896580  0.75918752  -0.05247365  1
  C  C2  8  0.13101489  0.83904606  0.37473439  1
  C  C3  8  0.13836882  0.20538013  0.12580579  1
  C  C4  8  0.14388792  0.79444485  0.07920490  1
  N  N5  8  0.09730093  0.78076985  0.24236715  1
  N  N6  8  0.10196823  0.83724760  0.57192881  1
  N  N7  8  0.10209956  0.27382151  0.00240494  1
  N  N8  8  0.10994781  0.19642740  0.30900084  1
  O  O9  8  0.03787109  0.31910637  0.06130330  1
  O  O10  8  0.07284285  0.76416815  0.63038681  1
  O  O11  8  0.09349679  0.11027460  0.66530275  1
  O  O12  8  0.13833574  0.28332322  -0.15450348  1
