###############################################################################################
#
# CIF file generated by modified CIFWriter class 
# in pymatgen (v2025.03.10) https://pymatgen.org/
#
###############################################################################################
data_PBE+MBD_tight_526fa16e3d9f1a
_symmetry_space_group_name_H-M   Pcca
_cell_length_a   15.53483909
_cell_length_b   6.92870472
_cell_length_c   12.45718755
_cell_angle_alpha   90.00000000
_cell_angle_beta   90.00000000
_cell_angle_gamma   90.00000000
_symmetry_Int_Tables_number   54
_chemical_formula_moiety   'C3 H2 N4 O4'
_chemical_formula_sum   'H16 C24 N32 O32'
_cell_volume   1340.84573789
_cell_formula_units_Z   8
loop_
 _symmetry_equiv_pos_site_id
 _symmetry_equiv_pos_as_xyz
  1  'x, y, z'
  2  '-x, -y, -z'
  3  '-x+1/2, -y, z'
  4  'x+1/2, y, -z'
  5  'x+1/2, -y, -z+1/2'
  6  '-x+1/2, y, z+1/2'
  7  '-x, y, -z+1/2'
  8  'x, -y, z+1/2'
loop_
 _atom_site_type_symbol
 _atom_site_label
 _atom_site_symmetry_multiplicity
 _atom_site_fract_x
 _atom_site_fract_y
 _atom_site_fract_z
 _atom_site_occupancy
  H  H0  8  0.15305490  0.45752441  -0.23704957  1
  H  H1  8  0.15677073  0.22846890  0.15152495  1
  C  C2  8  0.11838916  0.09935029  0.31195533  1
  C  C3  8  0.12272837  0.35892595  0.39639741  1
  C  C4  8  0.14380893  0.23674487  0.23692012  1
  N  N5  8  0.10424933  0.17561078  0.41032535  1
  N  N6  8  0.10745419  -0.10499168  0.29523439  1
  N  N7  8  0.12812804  0.49537752  0.48339048  1
  N  N8  8  0.14601174  0.40418079  0.29338376  1
  O  O9  8  0.05111276  -0.18732195  0.34652111  1
  O  O10  8  0.08796947  0.45833254  0.56575462  1
  O  O11  8  0.15758958  -0.18527804  0.23102589  1
  O  O12  8  0.17501214  0.36182905  -0.03041835  1
