###############################################################################################
#
# CIF file generated by modified CIFWriter class 
# in pymatgen (v2025.03.10) https://pymatgen.org/
#
###############################################################################################
data_PBE+MBD_tight_54616f5ce39ee10
_symmetry_space_group_name_H-M   Pnna
_cell_length_a   10.81091536
_cell_length_b   23.83950946
_cell_length_c   7.02717006
_cell_angle_alpha   90.00000000
_cell_angle_beta   90.00000000
_cell_angle_gamma   90.00000000
_symmetry_Int_Tables_number   52
_chemical_formula_moiety   'C3 H2 N4 O4'
_chemical_formula_sum   'H16 C24 N32 O32'
_cell_volume   1811.09088821
_cell_formula_units_Z   8
loop_
 _symmetry_equiv_pos_site_id
 _symmetry_equiv_pos_as_xyz
  1  'x, y, z'
  2  '-x, -y, -z'
  3  '-x+1/2, -y, z'
  4  'x+1/2, y, -z'
  5  'x, -y+1/2, -z+1/2'
  6  '-x, y+1/2, z+1/2'
  7  '-x+1/2, y+1/2, -z+1/2'
  8  'x+1/2, -y+1/2, z+1/2'
loop_
 _atom_site_type_symbol
 _atom_site_label
 _atom_site_symmetry_multiplicity
 _atom_site_fract_x
 _atom_site_fract_y
 _atom_site_fract_z
 _atom_site_occupancy
  H  H0  8  0.01999629  0.53350187  0.83777728  1
  H  H1  8  0.14157352  0.54755748  0.52807774  1
  C  C2  8  0.10931320  0.55384380  0.82789150  1
  C  C3  8  0.18349585  0.58148599  0.95966254  1
  C  C4  8  0.22349717  0.08905761  0.79900675  1
  N  N5  8  0.12675574  0.09634661  0.93907765  1
  N  N6  8  0.16107839  0.58684627  1.16061642  1
  N  N7  8  0.17167181  0.55912153  0.66142939  1
  N  N8  8  0.21331624  0.10381787  0.61987052  1
  O  O9  8  0.05926312  0.13716030  0.92637376  1
  O  O10  8  0.09567758  0.54965739  1.23614650  1
  O  O11  8  0.11926508  0.05831101  1.05977579  1
  O  O12  8  0.20822456  0.62610664  1.24562551  1
