###############################################################################################
#
# CIF file generated by modified CIFWriter class 
# in pymatgen (v2025.03.10) https://pymatgen.org/
#
###############################################################################################
data_PBE+MBD_tight_56f4ea17970cd7c
_symmetry_space_group_name_H-M   P4_12_12
_cell_length_a   8.18971703
_cell_length_b   8.18971703
_cell_length_c   19.75558219
_cell_angle_alpha   90.00000000
_cell_angle_beta   90.00000000
_cell_angle_gamma   90.00000000
_symmetry_Int_Tables_number   92
_chemical_formula_moiety   'C3 H2 N4 O4'
_chemical_formula_sum   'H16 C24 N32 O32'
_cell_volume   1325.03584117
_cell_formula_units_Z   8
loop_
 _symmetry_equiv_pos_site_id
 _symmetry_equiv_pos_as_xyz
  1  'x, y, z'
  2  '-y+1/2, x+1/2, z+1/4'
  3  '-x, -y, z+1/2'
  4  'y+1/2, -x+1/2, z+3/4'
  5  'x+1/2, -y+1/2, -z+3/4'
  6  '-y, -x, -z+1/2'
  7  '-x+1/2, y+1/2, -z+1/4'
  8  'y, x, -z'
loop_
 _atom_site_type_symbol
 _atom_site_label
 _atom_site_symmetry_multiplicity
 _atom_site_fract_x
 _atom_site_fract_y
 _atom_site_fract_z
 _atom_site_occupancy
  H  H0  8  0.01194470  0.81968906  0.49916799  1
  H  H1  8  0.02701703  0.40103308  0.24190884  1
  C  C2  8  -0.02671726  0.75789181  0.61042721  1
  C  C3  8  0.01362160  0.73830701  0.54245982  1
  C  C4  8  0.01694371  0.44416289  0.35060658  1
  N  N5  8  -0.09539032  0.90150015  0.64125922  1
  N  N6  8  0.00070670  0.61995046  0.64655184  1
  N  N7  8  0.06476325  0.58226431  0.53736967  1
  N  N8  8  0.10759911  0.35209437  0.61440938  1
  O  O9  8  -0.02176904  1.11523484  0.89615721  1
  O  O10  8  0.10326019  0.30572148  0.67360395  1
  O  O11  8  0.10420446  1.13172527  0.79847645  1
  O  O12  8  0.15429858  0.27183736  0.56514214  1
