###############################################################################################
#
# CIF file generated by modified CIFWriter class 
# in pymatgen (v2025.03.10) https://pymatgen.org/
#
###############################################################################################
data_PBE+MBD_tight_5789e960928dcb4
_symmetry_space_group_name_H-M   Pcca
_cell_length_a   14.23731062
_cell_length_b   6.43244049
_cell_length_c   13.68145067
_cell_angle_alpha   90.00000000
_cell_angle_beta   90.00000000
_cell_angle_gamma   90.00000000
_symmetry_Int_Tables_number   54
_chemical_formula_moiety   'C3 H2 N4 O4'
_chemical_formula_sum   'H16 C24 N32 O32'
_cell_volume   1252.95619051
_cell_formula_units_Z   8
loop_
 _symmetry_equiv_pos_site_id
 _symmetry_equiv_pos_as_xyz
  1  'x, y, z'
  2  '-x, -y, -z'
  3  '-x+1/2, -y, z'
  4  'x+1/2, y, -z'
  5  'x+1/2, -y, -z+1/2'
  6  '-x+1/2, y, z+1/2'
  7  '-x, y, -z+1/2'
  8  'x, -y, z+1/2'
loop_
 _atom_site_type_symbol
 _atom_site_label
 _atom_site_symmetry_multiplicity
 _atom_site_fract_x
 _atom_site_fract_y
 _atom_site_fract_z
 _atom_site_occupancy
  H  H0  8  0.18445187  0.25096035  0.38382098  1
  H  H1  8  0.21417567  0.25004730  0.04167342  1
  C  C2  8  0.06639050  0.24977624  0.49551473  1
  C  C3  8  0.15333338  0.24885547  0.61799041  1
  C  C4  8  0.15761721  0.25036454  0.45826631  1
  N  N5  8  -0.01875483  0.25030899  0.43881053  1
  N  N6  8  0.06410657  0.24878193  0.59428851  1
  N  N7  8  0.18971257  0.24812569  0.71648347  1
  N  N8  8  0.21271899  0.24984005  0.53899171  1
  O  O9  8  -0.09388406  0.25010521  0.48623761  1
  O  O10  8  -0.01205885  0.25097327  0.34988864  1
  O  O11  8  0.13441379  0.24584595  0.78467772  1
  O  O12  8  0.22286472  0.24991836  0.22305341  1
