###############################################################################################
#
# CIF file generated by modified CIFWriter class 
# in pymatgen (v2025.03.10) https://pymatgen.org/
#
###############################################################################################
data_PBE+MBD_tight_57ca561bbf0b69d
_symmetry_space_group_name_H-M   P4_2bc
_cell_length_a   12.15571358
_cell_length_b   12.15571358
_cell_length_c   9.80158631
_cell_angle_alpha   90.00000000
_cell_angle_beta   90.00000000
_cell_angle_gamma   90.00000000
_symmetry_Int_Tables_number   106
_chemical_formula_moiety   'C3 H2 N4 O4'
_chemical_formula_sum   'H16 C24 N32 O32'
_cell_volume   1448.29584731
_cell_formula_units_Z   8
loop_
 _symmetry_equiv_pos_site_id
 _symmetry_equiv_pos_as_xyz
  1  'x, y, z'
  2  '-y, x, z+1/2'
  3  '-x, -y, z'
  4  'y, -x, z+1/2'
  5  '-x+1/2, y+1/2, z'
  6  'y+1/2, x+1/2, z+1/2'
  7  'x+1/2, -y+1/2, z'
  8  '-y+1/2, -x+1/2, z+1/2'
loop_
 _atom_site_type_symbol
 _atom_site_label
 _atom_site_symmetry_multiplicity
 _atom_site_fract_x
 _atom_site_fract_y
 _atom_site_fract_z
 _atom_site_occupancy
  H  H0  8  0.06715158  0.57486850  0.74827463  1
  H  H1  8  0.17994447  0.70486584  0.90200561  1
  C  C2  8  -0.04914747  0.68456895  0.30707655  1
  C  C3  8  0.04917570  0.77885815  0.43634594  1
  C  C4  8  0.11826627  0.69700190  0.38584239  1
  N  N5  8  -0.13769670  0.64305166  0.22610854  1
  N  N6  8  -0.05442454  0.77091909  0.38836671  1
  N  N7  8  0.05264251  0.63640065  0.30344655  1
  N  N8  8  0.08238169  0.86178109  0.53467359  1
  O  O9  8  0.01624714  0.88803057  0.62294780  1
  O  O10  8  0.05320896  0.37966483  0.66601082  1
  O  O11  8  0.10276392  0.17746468  1.02197914  1
  O  O12  8  0.19578630  0.27731843  0.71751577  1
