###############################################################################################
#
# CIF file generated by modified CIFWriter class 
# in pymatgen (v2025.03.10) https://pymatgen.org/
#
###############################################################################################
data_PBE+MBD_tight_58a1d7f4ba6244f
_symmetry_space_group_name_H-M   Pcca
_cell_length_a   28.81078677
_cell_length_b   4.24015318
_cell_length_c   10.84835363
_cell_angle_alpha   90.00000000
_cell_angle_beta   90.00000000
_cell_angle_gamma   90.00000000
_symmetry_Int_Tables_number   54
_chemical_formula_moiety   'C3 H2 N4 O4'
_chemical_formula_sum   'H16 C24 N32 O32'
_cell_volume   1325.25819336
_cell_formula_units_Z   8
loop_
 _symmetry_equiv_pos_site_id
 _symmetry_equiv_pos_as_xyz
  1  'x, y, z'
  2  '-x, -y, -z'
  3  '-x+1/2, -y, z'
  4  'x+1/2, y, -z'
  5  'x+1/2, -y, -z+1/2'
  6  '-x+1/2, y, z+1/2'
  7  '-x, y, -z+1/2'
  8  'x, -y, z+1/2'
loop_
 _atom_site_type_symbol
 _atom_site_label
 _atom_site_symmetry_multiplicity
 _atom_site_fract_x
 _atom_site_fract_y
 _atom_site_fract_z
 _atom_site_occupancy
  H  H0  8  0.08121146  0.45958394  1.30648222  1
  H  H1  8  0.15196139  0.10079529  1.32922465  1
  C  C2  8  0.09207442  0.41799847  1.11023295  1
  C  C3  8  0.13702837  0.17848241  1.24230434  1
  C  C4  8  0.14936379  0.11675771  1.12053437  1
  N  N5  8  0.05534498  0.38096990  0.56785841  1
  N  N6  8  0.10024737  0.37486965  1.23327087  1
  N  N7  8  0.12143541  0.26498558  1.03861708  1
  N  N8  8  0.18754122  -0.08399406  1.08312060  1
  O  O9  8  0.03403500  0.23295347  0.64767439  1
  O  O10  8  0.04772436  0.36687025  0.45571863  1
  O  O11  8  0.19694087  -0.09946443  0.97261035  1
  O  O12  8  0.20750260  -0.22728359  1.16649547  1
