###############################################################################################
#
# CIF file generated by modified CIFWriter class 
# in pymatgen (v2025.03.10) https://pymatgen.org/
#
###############################################################################################
data_PBE+MBD_tight_5b296fd113bfe02
_symmetry_space_group_name_H-M   C222
_cell_length_a   13.25968947
_cell_length_b   5.33515976
_cell_length_c   17.96162298
_cell_angle_alpha   90.00000000
_cell_angle_beta   90.00000000
_cell_angle_gamma   90.00000000
_symmetry_Int_Tables_number   21
_chemical_formula_moiety   'C3 H2 N4 O4'
_chemical_formula_sum   'H16 C24 N32 O32'
_cell_volume   1270.65122090
_cell_formula_units_Z   8
loop_
 _symmetry_equiv_pos_site_id
 _symmetry_equiv_pos_as_xyz
  1  'x, y, z'
  2  '-x, -y, z'
  3  '-x, y, -z'
  4  'x, -y, -z'
  5  'x+1/2, y+1/2, z'
  6  '-x+1/2, -y+1/2, z'
  7  '-x+1/2, y+1/2, -z'
  8  'x+1/2, -y+1/2, -z'
loop_
 _atom_site_type_symbol
 _atom_site_label
 _atom_site_symmetry_multiplicity
 _atom_site_fract_x
 _atom_site_fract_y
 _atom_site_fract_z
 _atom_site_occupancy
  H  H0  8  0.12549234  -0.15137161  0.82888573  1
  H  H1  8  0.12553431  -0.19159924  0.68650112  1
  C  C2  8  0.12131155  0.23250091  0.69343704  1
  C  C3  8  0.12195359  0.24900031  0.80992389  1
  C  C4  8  0.12396883  -0.01561090  0.71710277  1
  N  N5  8  0.11987511  0.31618809  0.61631880  1
  N  N6  8  0.12046649  0.39587859  0.75095180  1
  N  N7  8  0.12147467  0.33930915  0.88544548  1
  N  N8  8  0.12416836  -0.00080702  0.79257950  1
  O  O9  8  0.11865486  0.45549417  0.39487684  1
  O  O10  8  0.12035150  0.15123624  0.56896291  1
  O  O11  8  0.12073998  0.42994917  0.10505176  1
  O  O12  8  0.12212736  0.18051288  0.93484526  1
