###############################################################################################
#
# CIF file generated by modified CIFWriter class 
# in pymatgen (v2025.03.10) https://pymatgen.org/
#
###############################################################################################
data_PBE+MBD_tight_5ffd5d5d9cce03b
_symmetry_space_group_name_H-M   C2/c
_cell_length_a   6.72859255
_cell_length_b   13.75684707
_cell_length_c   13.82698268
_cell_angle_alpha   90.00000000
_cell_angle_beta   79.13909627
_cell_angle_gamma   90.00000000
_symmetry_Int_Tables_number   15
_chemical_formula_moiety   'C3 H2 N4 O4'
_chemical_formula_sum   'H16 C24 N32 O32'
_cell_volume   1256.95794867
_cell_formula_units_Z   8
loop_
 _symmetry_equiv_pos_site_id
 _symmetry_equiv_pos_as_xyz
  1  'x, y, z'
  2  '-x, -y, -z'
  3  '-x, y, -z+1/2'
  4  'x, -y, z+1/2'
  5  'x+1/2, y+1/2, z'
  6  '-x+1/2, -y+1/2, -z'
  7  '-x+1/2, y+1/2, -z+1/2'
  8  'x+1/2, -y+1/2, z+1/2'
loop_
 _atom_site_type_symbol
 _atom_site_label
 _atom_site_symmetry_multiplicity
 _atom_site_fract_x
 _atom_site_fract_y
 _atom_site_fract_z
 _atom_site_occupancy
  H  H0  8  0.18738171  0.86059384  0.80538526  1
  H  H1  8  0.20224759  0.79620619  0.29411047  1
  C  C2  8  0.07100722  0.24959881  0.42476868  1
  C  C3  8  0.16325384  0.21328190  0.33308793  1
  C  C4  8  0.17016409  0.37184335  0.34041970  1
  N  N5  8  -0.02030216  0.19233882  0.50860214  1
  N  N6  8  0.07632861  0.65222717  0.92909148  1
  N  N7  8  0.21249861  0.52982456  0.80598647  1
  N  N8  8  0.22572017  0.29381424  0.27949971  1
  O  O9  8  -0.08987673  0.23849565  0.58545717  1
  O  O10  8  -0.02209673  0.10405836  0.49956144  1
  O  O11  8  0.16731218  0.46291143  0.86412237  1
  O  O12  8  0.20809986  0.97799839  0.28264177  1
