###############################################################################################
#
# CIF file generated by modified CIFWriter class 
# in pymatgen (v2025.03.10) https://pymatgen.org/
#
###############################################################################################
data_PBE+MBD_tight_61e2bb4029eaa8c
_symmetry_space_group_name_H-M   C2/c
_cell_length_a   10.37619986
_cell_length_b   10.77111388
_cell_length_c   11.73784079
_cell_angle_alpha   90.00000000
_cell_angle_beta   87.67306756
_cell_angle_gamma   90.00000000
_symmetry_Int_Tables_number   15
_chemical_formula_moiety   'C3 H2 N4 O4'
_chemical_formula_sum   'H16 C24 N32 O32'
_cell_volume   1310.77727096
_cell_formula_units_Z   8
loop_
 _symmetry_equiv_pos_site_id
 _symmetry_equiv_pos_as_xyz
  1  'x, y, z'
  2  '-x, -y, -z'
  3  '-x, y, -z+1/2'
  4  'x, -y, z+1/2'
  5  'x+1/2, y+1/2, z'
  6  '-x+1/2, -y+1/2, -z'
  7  '-x+1/2, y+1/2, -z+1/2'
  8  'x+1/2, -y+1/2, z+1/2'
loop_
 _atom_site_type_symbol
 _atom_site_label
 _atom_site_symmetry_multiplicity
 _atom_site_fract_x
 _atom_site_fract_y
 _atom_site_fract_z
 _atom_site_occupancy
  H  H0  8  0.14694669  0.36179570  0.12851444  1
  H  H1  8  0.16270492  0.60016912  0.12443588  1
  C  C2  8  0.13257732  0.07237080  0.37516009  1
  C  C3  8  0.13461212  -0.12101672  0.37251251  1
  C  C4  8  0.23585553  0.58525494  0.62736841  1
  N  N5  8  0.05374293  1.02289442  0.87409987  1
  N  N6  8  0.08686580  -0.24643631  0.37180244  1
  N  N7  8  0.09270239  0.19955079  0.37599682  1
  N  N8  8  0.23976330  0.46004466  0.62525990  1
  O  O9  8  -0.03187782  1.26130413  0.87569290  1
  O  O10  8  -0.02454756  0.21927905  0.37647766  1
  O  O11  8  0.16689896  1.33111477  0.86767269  1
  O  O12  8  0.17798973  0.72058206  0.87600436  1
