###############################################################################################
#
# CIF file generated by modified CIFWriter class 
# in pymatgen (v2025.03.10) https://pymatgen.org/
#
###############################################################################################
data_PBE+MBD_tight_6357983d1e6f2e9
_symmetry_space_group_name_H-M   P4_32_12
_cell_length_a   9.02740157
_cell_length_b   9.02740157
_cell_length_c   16.91535943
_cell_angle_alpha   90.00000000
_cell_angle_beta   90.00000000
_cell_angle_gamma   90.00000000
_symmetry_Int_Tables_number   96
_chemical_formula_moiety   'C3 H2 N4 O4'
_chemical_formula_sum   'H16 C24 N32 O32'
_cell_volume   1378.49994862
_cell_formula_units_Z   8
loop_
 _symmetry_equiv_pos_site_id
 _symmetry_equiv_pos_as_xyz
  1  'x, y, z'
  2  '-y+1/2, x+1/2, z+3/4'
  3  '-x, -y, z+1/2'
  4  'y+1/2, -x+1/2, z+1/4'
  5  'x+1/2, -y+1/2, -z+1/4'
  6  '-y, -x, -z+1/2'
  7  '-x+1/2, y+1/2, -z+3/4'
  8  'y, x, -z'
loop_
 _atom_site_type_symbol
 _atom_site_label
 _atom_site_symmetry_multiplicity
 _atom_site_fract_x
 _atom_site_fract_y
 _atom_site_fract_z
 _atom_site_occupancy
  H  H0  8  0.06181473  0.79403935  0.93238610  1
  H  H1  8  0.15635667  0.67786623  0.14055468  1
  C  C2  8  -0.03762357  0.54115880  0.13917814  1
  C  C3  8  0.05299441  0.67624687  0.92142794  1
  C  C4  8  0.06175393  0.34319186  0.17393134  1
  N  N5  8  -0.13857810  0.65443207  0.11483831  1
  N  N6  8  -0.07358452  0.60935459  0.89784067  1
  N  N7  8  -0.07101401  0.40190099  0.15422498  1
  N  N8  8  0.07829213  0.18742021  0.19277851  1
  O  O9  8  -0.13320538  0.22709805  0.87373215  1
  O  O10  8  -0.08338646  0.76822817  0.08645993  1
  O  O11  8  -0.01725198  0.10144577  0.16905266  1
  O  O12  8  0.15360266  0.18933152  0.76855408  1
