###############################################################################################
#
# CIF file generated by modified CIFWriter class 
# in pymatgen (v2025.03.10) https://pymatgen.org/
#
###############################################################################################
data_PBE+MBD_tight_639847c64eae892
_symmetry_space_group_name_H-M   C2/c
_cell_length_a   14.17177587
_cell_length_b   10.67797877
_cell_length_c   8.55790546
_cell_angle_alpha   90.00000000
_cell_angle_beta   71.66410623
_cell_angle_gamma   90.00000000
_symmetry_Int_Tables_number   15
_chemical_formula_moiety   'C3 H2 N4 O4'
_chemical_formula_sum   'H16 C24 N32 O32'
_cell_volume   1229.28228028
_cell_formula_units_Z   8
loop_
 _symmetry_equiv_pos_site_id
 _symmetry_equiv_pos_as_xyz
  1  'x, y, z'
  2  '-x, -y, -z'
  3  '-x, y, -z+1/2'
  4  'x, -y, z+1/2'
  5  'x+1/2, y+1/2, z'
  6  '-x+1/2, -y+1/2, -z'
  7  '-x+1/2, y+1/2, -z+1/2'
  8  'x+1/2, -y+1/2, z+1/2'
loop_
 _atom_site_type_symbol
 _atom_site_label
 _atom_site_symmetry_multiplicity
 _atom_site_fract_x
 _atom_site_fract_y
 _atom_site_fract_z
 _atom_site_occupancy
  H  H0  8  0.17770580  0.69586792  0.19559687  1
  H  H1  8  0.17910557  0.19334101  0.18205728  1
  C  C2  8  0.19135129  0.10256484  0.69712614  1
  C  C3  8  0.19393732  0.40442872  0.19860482  1
  C  C4  8  0.21279648  0.27751488  0.21200231  1
  N  N5  8  0.11740632  0.93105195  0.12097763  1
  N  N6  8  0.12256266  0.54395272  0.62915277  1
  N  N7  8  0.21272818  0.22456697  0.72081881  1
  N  N8  8  0.24663543  0.97864067  0.24460449  1
  O  O9  8  0.07468745  0.61786644  0.57374393  1
  O  O10  8  0.07618021  0.15619584  0.57379947  1
  O  O11  8  0.10201918  1.04351039  0.10715877  1
  O  O12  8  0.11412885  0.57189776  0.12637988  1
