###############################################################################################
#
# CIF file generated by modified CIFWriter class 
# in pymatgen (v2025.03.10) https://pymatgen.org/
#
###############################################################################################
data_PBE+MBD_tight_64380a98b4cd98c
_symmetry_space_group_name_H-M   Pnnm
_cell_length_a   10.15366684
_cell_length_b   11.82691110
_cell_length_c   13.55948391
_cell_angle_alpha   90.00000000
_cell_angle_beta   90.00000000
_cell_angle_gamma   90.00000000
_symmetry_Int_Tables_number   58
_chemical_formula_moiety   'C3 H2 N4 O4'
_chemical_formula_sum   'H16 C24 N32 O32'
_cell_volume   1628.31116825
_cell_formula_units_Z   8
loop_
 _symmetry_equiv_pos_site_id
 _symmetry_equiv_pos_as_xyz
  1  'x, y, z'
  2  '-x, -y, -z'
  3  '-x, -y, z'
  4  'x, y, -z'
  5  'x+1/2, -y+1/2, -z+1/2'
  6  '-x+1/2, y+1/2, z+1/2'
  7  '-x+1/2, y+1/2, -z+1/2'
  8  'x+1/2, -y+1/2, z+1/2'
loop_
 _atom_site_type_symbol
 _atom_site_label
 _atom_site_symmetry_multiplicity
 _atom_site_fract_x
 _atom_site_fract_y
 _atom_site_fract_z
 _atom_site_occupancy
  H  H0  8  -0.02835886  0.65788165  0.13691280  1
  H  H1  8  -0.01141890  0.87534055  0.13571585  1
  C  C2  8  0.06240953  0.70624809  0.13805952  1
  C  C3  8  0.19420391  0.67351950  0.14322256  1
  C  C4  8  0.19752023  0.84983688  0.14200919  1
  N  N5  8  0.06723377  0.82058520  0.13695823  1
  N  N6  8  0.22251226  0.26251780  0.35321454  1
  N  N7  8  0.23934893  0.96587405  0.13559886  1
  N  N8  8  0.24157603  0.55817762  0.14344896  1
  O  O9  8  0.14402788  0.04061564  0.33118846  1
  O  O10  8  0.14572456  0.48849022  0.34671541  1
  O  O11  8  0.15318277  1.03509971  0.11004131  1
  O  O12  8  0.16122225  0.48519310  0.11794909  1
