###############################################################################################
#
# CIF file generated by modified CIFWriter class 
# in pymatgen (v2025.03.10) https://pymatgen.org/
#
###############################################################################################
data_PBE+MBD_tight_645d02b32851a5f
_symmetry_space_group_name_H-M   Pbcn
_cell_length_a   11.38702782
_cell_length_b   10.75650029
_cell_length_c   10.16439150
_cell_angle_alpha   90.00000000
_cell_angle_beta   90.00000000
_cell_angle_gamma   90.00000000
_symmetry_Int_Tables_number   60
_chemical_formula_moiety   'C3 H2 N4 O4'
_chemical_formula_sum   'H16 C24 N32 O32'
_cell_volume   1244.98110233
_cell_formula_units_Z   8
loop_
 _symmetry_equiv_pos_site_id
 _symmetry_equiv_pos_as_xyz
  1  'x, y, z'
  2  '-x, -y, -z'
  3  '-x+1/2, -y+1/2, z+1/2'
  4  'x+1/2, y+1/2, -z+1/2'
  5  'x+1/2, -y+1/2, -z'
  6  '-x+1/2, y+1/2, z'
  7  '-x, y, -z+1/2'
  8  'x, -y, z+1/2'
loop_
 _atom_site_type_symbol
 _atom_site_label
 _atom_site_symmetry_multiplicity
 _atom_site_fract_x
 _atom_site_fract_y
 _atom_site_fract_z
 _atom_site_occupancy
  H  H0  8  0.09412768  0.28206302  0.73655463  1
  H  H1  8  0.22365121  0.08451831  0.24004976  1
  C  C2  8  0.08022890  0.35696119  0.52706264  1
  C  C3  8  0.12428105  0.33635605  0.65337561  1
  C  C4  8  0.23626843  0.45806094  0.53778185  1
  N  N5  8  -0.03067631  0.31103298  0.47883170  1
  N  N6  8  0.15040997  0.43272234  0.45529533  1
  N  N7  8  0.16485451  -0.03695012  0.01268322  1
  N  N8  8  0.22422099  0.40299287  0.65799537  1
  O  O9  8  -0.08883450  0.24603960  0.55628297  1
  O  O10  8  -0.06225344  0.34000884  0.36766023  1
  O  O11  8  0.09596811  -0.05099789  0.10504936  1
  O  O12  8  0.15434300  -0.08691014  -0.09652196  1
