###############################################################################################
#
# CIF file generated by modified CIFWriter class 
# in pymatgen (v2025.03.10) https://pymatgen.org/
#
###############################################################################################
data_PBE+MBD_tight_6645085812da6a0
_symmetry_space_group_name_H-M   P4_222
_cell_length_a   9.22719444
_cell_length_b   9.22719444
_cell_length_c   17.74039218
_cell_angle_alpha   90.00000000
_cell_angle_beta   90.00000000
_cell_angle_gamma   90.00000000
_symmetry_Int_Tables_number   93
_chemical_formula_moiety   'C3 H2 N4 O4'
_chemical_formula_sum   'H16 C24 N32 O32'
_cell_volume   1510.43680902
_cell_formula_units_Z   8
loop_
 _symmetry_equiv_pos_site_id
 _symmetry_equiv_pos_as_xyz
  1  'x, y, z'
  2  '-y, x, z+1/2'
  3  '-x, -y, z'
  4  'y, -x, z+1/2'
  5  'x, -y, -z'
  6  '-y, -x, -z+1/2'
  7  '-x, y, -z'
  8  'y, x, -z+1/2'
loop_
 _atom_site_type_symbol
 _atom_site_label
 _atom_site_symmetry_multiplicity
 _atom_site_fract_x
 _atom_site_fract_y
 _atom_site_fract_z
 _atom_site_occupancy
  H  H0  8  0.10846559  0.31594866  0.75052896  1
  H  H1  8  0.19895288  0.41792947  0.24977240  1
  C  C2  8  0.15730496  0.37207169  0.79806631  1
  C  C3  8  0.19107252  0.32671260  0.87089312  1
  C  C4  8  0.26049139  0.45816950  0.13468565  1
  N  N5  8  0.16780450  0.81834033  0.09903200  1
  N  N6  8  0.20178026  0.48758105  0.20402292  1
  N  N7  8  0.25481243  0.56835930  0.08780393  1
  N  N8  8  0.32139643  0.33110724  0.37996773  1
  O  O9  8  0.08412542  0.15833891  0.64689160  1
  O  O10  8  0.16020545  0.16717680  0.96926536  1
  O  O11  8  0.22559924  0.31102794  0.33069256  1
  O  O12  8  0.30863041  0.40503186  0.43614600  1
