###############################################################################################
#
# CIF file generated by modified CIFWriter class 
# in pymatgen (v2025.03.10) https://pymatgen.org/
#
###############################################################################################
data_PBE+MBD_tight_6a28694e60f4c53
_symmetry_space_group_name_H-M   P4_2/n
_cell_length_a   15.29817215
_cell_length_b   15.29817215
_cell_length_c   5.30703308
_cell_angle_alpha   90.00000000
_cell_angle_beta   90.00000000
_cell_angle_gamma   90.00000000
_symmetry_Int_Tables_number   86
_chemical_formula_moiety   'C3 H2 N4 O4'
_chemical_formula_sum   'H16 C24 N32 O32'
_cell_volume   1242.02655749
_cell_formula_units_Z   8
loop_
 _symmetry_equiv_pos_site_id
 _symmetry_equiv_pos_as_xyz
  1  'x, y, z'
  2  '-y+1/2, x+1/2, z+1/2'
  3  '-x, -y, z'
  4  'y+1/2, -x+1/2, z+1/2'
  5  '-x+1/2, -y+1/2, -z+1/2'
  6  'y, -x, -z'
  7  'x+1/2, y+1/2, -z+1/2'
  8  '-y, x, -z'
loop_
 _atom_site_type_symbol
 _atom_site_label
 _atom_site_symmetry_multiplicity
 _atom_site_fract_x
 _atom_site_fract_y
 _atom_site_fract_z
 _atom_site_occupancy
  H  H0  8  0.13142267  0.16733149  0.89947656  1
  H  H1  8  0.13277480  0.33343692  0.94226757  1
  C  C2  8  0.13719663  0.29813229  0.76565823  1
  C  C3  8  0.14206259  0.18995591  0.49849360  1
  C  C4  8  0.14496603  0.32619704  0.51701538  1
  N  N5  8  0.08387643  0.65034597  0.93878855  1
  N  N6  8  0.10150547  0.85847076  0.58881354  1
  N  N7  8  0.13614649  0.21007048  0.74948573  1
  N  N8  8  0.14780477  0.25900974  0.35179103  1
  O  O9  8  0.02824054  0.64414489  1.10596762  1
  O  O10  8  0.04429919  0.85861224  0.42520820  1
  O  O11  8  0.06827071  0.66169929  0.71263158  1
  O  O12  8  0.08785175  0.85876181  0.81903216  1
