###############################################################################################
#
# CIF file generated by modified CIFWriter class 
# in pymatgen (v2025.03.10) https://pymatgen.org/
#
###############################################################################################
data_PBE+MBD_tight_6acdf16ff4fcc68
_symmetry_space_group_name_H-M   P-42c
_cell_length_a   10.65714156
_cell_length_b   10.65714156
_cell_length_c   12.23147563
_cell_angle_alpha   90.00000000
_cell_angle_beta   90.00000000
_cell_angle_gamma   90.00000000
_symmetry_Int_Tables_number   112
_chemical_formula_moiety   'C3 H2 N4 O4'
_chemical_formula_sum   'H16 C24 N32 O32'
_cell_volume   1389.18576150
_cell_formula_units_Z   8
loop_
 _symmetry_equiv_pos_site_id
 _symmetry_equiv_pos_as_xyz
  1  'x, y, z'
  2  'y, -x, -z'
  3  '-x, -y, z'
  4  '-y, x, -z'
  5  'x, -y, -z+1/2'
  6  'y, x, z+1/2'
  7  '-x, y, -z+1/2'
  8  '-y, -x, z+1/2'
loop_
 _atom_site_type_symbol
 _atom_site_label
 _atom_site_symmetry_multiplicity
 _atom_site_fract_x
 _atom_site_fract_y
 _atom_site_fract_z
 _atom_site_occupancy
  H  H0  8  -0.00081649  0.14606632  0.63167867  1
  H  H1  8  0.00751573  0.38544158  0.62177363  1
  C  C2  8  0.08424752  0.20154106  0.62594564  1
  C  C3  8  0.16835334  0.21037728  0.11833770  1
  C  C4  8  0.20833622  0.36370217  0.61264303  1
  N  N5  8  0.04166733  0.25717242  0.11640253  1
  N  N6  8  0.08533218  0.32830019  0.62260111  1
  N  N7  8  0.24414872  0.49417753  0.61194058  1
  N  N8  8  0.26885557  0.28692473  0.10983578  1
  O  O9  8  -0.04310586  0.17733972  0.12630702  1
  O  O10  8  0.02442272  0.36974391  0.10345162  1
  O  O11  8  0.15718997  0.57143851  0.62860294  1
  O  O12  8  0.35372516  0.47884298  0.90127671  1
