###############################################################################################
#
# CIF file generated by modified CIFWriter class 
# in pymatgen (v2025.03.10) https://pymatgen.org/
#
###############################################################################################
data_PBE+MBD_tight_6e4739f2fb9acf7
_symmetry_space_group_name_H-M   P4/n
_cell_length_a   15.72634303
_cell_length_b   15.72634303
_cell_length_c   5.79687285
_cell_angle_alpha   90.00000000
_cell_angle_beta   90.00000000
_cell_angle_gamma   90.00000000
_symmetry_Int_Tables_number   85
_chemical_formula_moiety   'C3 H2 N4 O4'
_chemical_formula_sum   'H16 C24 N32 O32'
_cell_volume   1433.67021584
_cell_formula_units_Z   8
loop_
 _symmetry_equiv_pos_site_id
 _symmetry_equiv_pos_as_xyz
  1  'x, y, z'
  2  '-y+1/2, x+1/2, z'
  3  '-x, -y, z'
  4  'y+1/2, -x+1/2, z'
  5  '-x+1/2, -y+1/2, -z'
  6  'y, -x, -z'
  7  'x+1/2, y+1/2, -z'
  8  '-y, x, -z'
loop_
 _atom_site_type_symbol
 _atom_site_label
 _atom_site_symmetry_multiplicity
 _atom_site_fract_x
 _atom_site_fract_y
 _atom_site_fract_z
 _atom_site_occupancy
  H  H0  8  0.06389888  0.69376739  0.24950057  1
  H  H1  8  0.20546748  0.27244471  0.24971688  1
  C  C2  8  0.06315541  0.82860791  0.25013687  1
  C  C3  8  0.15376682  0.19464910  0.75004688  1
  C  C4  8  0.18326608  0.75835388  0.24987406  1
  N  N5  8  -0.02771439  0.83993409  0.25016795  1
  N  N6  8  0.09775818  0.74883578  0.25002115  1
  N  N7  8  0.11036126  0.27558606  0.74961475  1
  N  N8  8  0.11066568  0.12027535  0.74998412  1
  O  O9  8  -0.06997907  0.77248000  0.25046899  1
  O  O10  8  -0.05644800  0.91172853  0.24982420  1
  O  O11  8  0.03223005  0.27608353  0.74974334  1
  O  O12  8  0.15647898  0.33963472  0.74902693  1
