###############################################################################################
#
# CIF file generated by modified CIFWriter class 
# in pymatgen (v2025.03.10) https://pymatgen.org/
#
###############################################################################################
data_PBE+MBD_tight_71dfe71742e42c8
_symmetry_space_group_name_H-M   P4_2/m
_cell_length_a   7.81407768
_cell_length_b   7.81407768
_cell_length_c   28.72771360
_cell_angle_alpha   90.00000000
_cell_angle_beta   90.00000000
_cell_angle_gamma   90.00000000
_symmetry_Int_Tables_number   84
_chemical_formula_moiety   'C3 H2 N4 O4'
_chemical_formula_sum   'H16 C24 N32 O32'
_cell_volume   1754.10873309
_cell_formula_units_Z   8
loop_
 _symmetry_equiv_pos_site_id
 _symmetry_equiv_pos_as_xyz
  1  'x, y, z'
  2  '-x, -y, -z'
  3  '-y, x, z+1/2'
  4  'y, -x, -z+1/2'
  5  '-x, -y, z'
  6  'x, y, -z'
  7  'y, -x, z+1/2'
  8  '-y, x, -z+1/2'
loop_
 _atom_site_type_symbol
 _atom_site_label
 _atom_site_symmetry_multiplicity
 _atom_site_fract_x
 _atom_site_fract_y
 _atom_site_fract_z
 _atom_site_occupancy
  H  H0  8  0.24601731  0.68295836  0.10103744  1
  H  H1  8  0.28629819  0.52732393  0.82005404  1
  C  C2  8  0.08709505  0.24588546  0.35965589  1
  C  C3  8  0.19857350  0.27649081  0.29408551  1
  C  C4  8  0.27498852  0.66454616  0.17489080  1
  N  N5  8  -0.02948765  0.22829053  0.60174426  1
  N  N6  8  0.04584734  0.25870154  0.68449703  1
  N  N7  8  0.21090587  0.29855808  0.75569460  1
  N  N8  8  0.25516148  0.73991579  0.13276016  1
  O  O9  8  -0.18375260  0.21994639  0.61021858  1
  O  O10  8  0.03742359  0.22343129  0.56264393  1
  O  O11  8  0.07747997  0.31221420  0.22197207  1
  O  O12  8  0.30621044  0.64368399  0.27227767  1
