###############################################################################################
#
# CIF file generated by modified CIFWriter class 
# in pymatgen (v2025.03.10) https://pymatgen.org/
#
###############################################################################################
data_PBE+MBD_tight_743f8771c9fdb5c
_symmetry_space_group_name_H-M   P-42_1m
_cell_length_a   14.03305415
_cell_length_b   14.03305415
_cell_length_c   8.76612551
_cell_angle_alpha   90.00000000
_cell_angle_beta   90.00000000
_cell_angle_gamma   90.00000000
_symmetry_Int_Tables_number   113
_chemical_formula_moiety   'C3 H2 N4 O4'
_chemical_formula_sum   'H16 C24 N32 O32'
_cell_volume   1726.28336898
_cell_formula_units_Z   8
loop_
 _symmetry_equiv_pos_site_id
 _symmetry_equiv_pos_as_xyz
  1  'x, y, z'
  2  'y, -x, -z'
  3  '-x, -y, z'
  4  '-y, x, -z'
  5  'x+1/2, -y+1/2, -z'
  6  'y+1/2, x+1/2, z'
  7  '-x+1/2, y+1/2, -z'
  8  '-y+1/2, -x+1/2, z'
loop_
 _atom_site_type_symbol
 _atom_site_label
 _atom_site_symmetry_multiplicity
 _atom_site_fract_x
 _atom_site_fract_y
 _atom_site_fract_z
 _atom_site_occupancy
  H  H0  8  0.10242174  0.24823911  0.96606627  1
  H  H1  8  0.11426672  0.77429657  -0.00762241  1
  C  C2  8  0.06192130  0.83857328  0.21430166  1
  C  C3  8  0.07122264  0.17825645  0.75388963  1
  C  C4  8  0.12130513  0.82124496  0.09017002  1
  N  N5  8  -0.03253061  0.79899675  0.23027297  1
  N  N6  8  0.00080737  0.24612652  0.69881003  1
  N  N7  8  0.09492086  0.09748621  0.68921202  1
  N  N8  8  0.11881028  0.19600371  0.88768455  1
  O  O9  8  -0.09152097  0.84211229  0.30606722  1
  O  O10  8  -0.04800451  0.72411021  0.15712306  1
  O  O11  8  -0.02965921  0.30215368  0.79706862  1
  O  O12  8  -0.02224399  0.24328837  0.56487403  1
