###############################################################################################
#
# CIF file generated by modified CIFWriter class 
# in pymatgen (v2025.03.10) https://pymatgen.org/
#
###############################################################################################
data_PBE+MBD_tight_7485ba5c27c7f33
_symmetry_space_group_name_H-M   C2/c
_cell_length_a   18.86176385
_cell_length_b   6.76824961
_cell_length_c   9.97221628
_cell_angle_alpha   90.00000000
_cell_angle_beta   107.60841565
_cell_angle_gamma   90.00000000
_symmetry_Int_Tables_number   15
_chemical_formula_moiety   'C3 H2 N4 O4'
_chemical_formula_sum   'H16 C24 N32 O32'
_cell_volume   1213.41651070
_cell_formula_units_Z   8
loop_
 _symmetry_equiv_pos_site_id
 _symmetry_equiv_pos_as_xyz
  1  'x, y, z'
  2  '-x, -y, -z'
  3  '-x, y, -z+1/2'
  4  'x, -y, z+1/2'
  5  'x+1/2, y+1/2, z'
  6  '-x+1/2, -y+1/2, -z'
  7  '-x+1/2, y+1/2, -z+1/2'
  8  'x+1/2, -y+1/2, z+1/2'
loop_
 _atom_site_type_symbol
 _atom_site_label
 _atom_site_symmetry_multiplicity
 _atom_site_fract_x
 _atom_site_fract_y
 _atom_site_fract_z
 _atom_site_occupancy
  H  H0  8  0.11082376  0.51336176  0.82465519  1
  H  H1  8  0.16889973  0.17449807  0.81202626  1
  C  C2  8  0.09981861  0.53452808  0.60181462  1
  C  C3  8  0.14914420  0.27567995  0.72428886  1
  C  C4  8  0.14967750  0.26246390  0.58538078  1
  N  N5  8  0.06252188  0.72258816  0.56877612  1
  N  N6  8  0.11719343  0.45203406  0.73239305  1
  N  N7  8  0.11875812  0.42377437  0.50927951  1
  N  N8  8  0.18053875  0.10479241  0.52506765  1
  O  O9  8  0.04724947  0.77894669  0.44554969  1
  O  O10  8  0.04872223  0.80965694  0.66613561  1
  O  O11  8  0.18422262  0.87295095  -0.09561221  1
  O  O12  8  0.20219673  -0.04338413  0.59868943  1
