###############################################################################################
#
# CIF file generated by modified CIFWriter class 
# in pymatgen (v2025.03.10) https://pymatgen.org/
#
###############################################################################################
data_PBE+MBD_tight_7527ef691eb71e0
_symmetry_space_group_name_H-M   Pbcm
_cell_length_a   6.13675911
_cell_length_b   18.96988078
_cell_length_c   10.36211833
_cell_angle_alpha   90.00000000
_cell_angle_beta   90.00000000
_cell_angle_gamma   90.00000000
_symmetry_Int_Tables_number   57
_chemical_formula_moiety   'C3 H2 N4 O4'
_chemical_formula_sum   'H16 C24 N32 O32'
_cell_volume   1206.29138194
_cell_formula_units_Z   8
loop_
 _symmetry_equiv_pos_site_id
 _symmetry_equiv_pos_as_xyz
  1  'x, y, z'
  2  '-x, -y, -z'
  3  'x+1/2, -y, -z'
  4  '-x+1/2, y, z'
  5  '-x, y, -z+1/2'
  6  'x, -y, z+1/2'
  7  '-x+1/2, -y, z+1/2'
  8  'x+1/2, y, -z+1/2'
  9  'x, y+1/2, z'
  10  '-x, -y+1/2, -z'
  11  'x+1/2, -y+1/2, -z'
  12  '-x+1/2, y+1/2, z'
  13  '-x, y+1/2, -z+1/2'
  14  'x, -y+1/2, z+1/2'
  15  '-x+1/2, -y+1/2, z+1/2'
  16  'x+1/2, y+1/2, -z+1/2'
loop_
 _atom_site_type_symbol
 _atom_site_label
 _atom_site_symmetry_multiplicity
 _atom_site_fract_x
 _atom_site_fract_y
 _atom_site_fract_z
 _atom_site_occupancy
  H  H0  8  0.25001457  0.09505291  0.29350396  1
  H  H1  8  0.25001457  0.21766717  0.19081482  1
  C  C2  8  0.25001457  0.06024942  0.08396667  1
  C  C3  8  0.25001457  0.10528432  0.19052980  1
  C  C4  8  0.25001457  0.16176325  0.00730006  1
  N  N5  8  0.25001457  -0.01619626  0.08902689  1
  N  N6  8  0.25001457  0.09532392  -0.02864904  1
  N  N7  8  0.25001457  0.17084444  0.13876675  1
  N  N8  8  0.25001457  0.22037744  -0.07898952  1
  O  O9  8  0.25001457  -0.04823618  -0.01490278  1
  O  O10  8  0.25001457  -0.04301720  0.19650093  1
  O  O11  8  0.25001457  0.20810005  -0.19645640  1
  O  O12  8  0.25001457  0.21981088  0.46994730  1
