###############################################################################################
#
# CIF file generated by modified CIFWriter class 
# in pymatgen (v2025.03.10) https://pymatgen.org/
#
###############################################################################################
data_PBE+MBD_tight_7be2288ec589842
_symmetry_space_group_name_H-M   P4/n
_cell_length_a   11.95625074
_cell_length_b   11.95625074
_cell_length_c   9.57896580
_cell_angle_alpha   90.00000000
_cell_angle_beta   90.00000000
_cell_angle_gamma   90.00000000
_symmetry_Int_Tables_number   85
_chemical_formula_moiety   'C3 H2 N4 O4'
_chemical_formula_sum   'H16 C24 N32 O32'
_cell_volume   1369.33166491
_cell_formula_units_Z   8
loop_
 _symmetry_equiv_pos_site_id
 _symmetry_equiv_pos_as_xyz
  1  'x, y, z'
  2  '-y+1/2, x+1/2, z'
  3  '-x, -y, z'
  4  'y+1/2, -x+1/2, z'
  5  '-x+1/2, -y+1/2, -z'
  6  'y, -x, -z'
  7  'x+1/2, y+1/2, -z'
  8  '-y, x, -z'
loop_
 _atom_site_type_symbol
 _atom_site_label
 _atom_site_symmetry_multiplicity
 _atom_site_fract_x
 _atom_site_fract_y
 _atom_site_fract_z
 _atom_site_occupancy
  H  H0  8  -0.02976780  0.66464969  0.84599007  1
  H  H1  8  0.02544563  0.70474531  0.58804326  1
  C  C2  8  0.06510726  0.73906238  0.68062384  1
  C  C3  8  0.10063971  0.77630434  0.90048989  1
  C  C4  8  0.14871650  0.81851382  0.69746100  1
  N  N5  8  0.03661113  0.71127215  0.81374940  1
  N  N6  8  0.09289155  0.76380546  1.05044524  1
  N  N7  8  0.12960829  0.20913231  0.41580007  1
  N  N8  8  0.15846541  0.17020922  0.16651062  1
  O  O9  8  0.04215636  0.68069798  1.09142667  1
  O  O10  8  0.07306113  0.29205190  0.38869276  1
  O  O11  8  0.13819760  0.83579242  1.12309071  1
  O  O12  8  0.14759899  0.17175026  0.53464343  1
