###############################################################################################
#
# CIF file generated by modified CIFWriter class 
# in pymatgen (v2025.03.10) https://pymatgen.org/
#
###############################################################################################
data_PBE+MBD_tight_7c408c391df1bb2
_symmetry_space_group_name_H-M   P4_12_12
_cell_length_a   7.11371220
_cell_length_b   7.11371220
_cell_length_c   25.78378814
_cell_angle_alpha   90.00000000
_cell_angle_beta   90.00000000
_cell_angle_gamma   90.00000000
_symmetry_Int_Tables_number   92
_chemical_formula_moiety   'C3 H2 N4 O4'
_chemical_formula_sum   'H16 C24 N32 O32'
_cell_volume   1304.78605300
_cell_formula_units_Z   8
loop_
 _symmetry_equiv_pos_site_id
 _symmetry_equiv_pos_as_xyz
  1  'x, y, z'
  2  '-y+1/2, x+1/2, z+1/4'
  3  '-x, -y, z+1/2'
  4  'y+1/2, -x+1/2, z+3/4'
  5  'x+1/2, -y+1/2, -z+3/4'
  6  '-y, -x, -z+1/2'
  7  '-x+1/2, y+1/2, -z+1/4'
  8  'y, x, -z'
loop_
 _atom_site_type_symbol
 _atom_site_label
 _atom_site_symmetry_multiplicity
 _atom_site_fract_x
 _atom_site_fract_y
 _atom_site_fract_z
 _atom_site_occupancy
  H  H0  8  -0.12776020  0.28814523  0.39118781  1
  H  H1  8  -0.00764701  -0.04382492  0.41156857  1
  C  C2  8  -0.04896357  0.20035618  0.36474027  1
  C  C3  8  -0.03613273  0.11569375  0.66386277  1
  C  C4  8  0.00855356  0.22426783  0.31344345  1
  N  N5  8  -0.05211104  0.37501836  0.27961333  1
  N  N6  8  0.02045552  0.03080725  0.37833784  1
  N  N7  8  0.07822309  0.11283055  0.70390606  1
  N  N8  8  0.20323824  -0.21828027  0.33840406  1
  O  O9  8  -0.02375512  0.35889334  0.23282112  1
  O  O10  8  -0.00749945  0.36454054  0.55073019  1
  O  O11  8  0.15969675  -0.31696325  0.37603746  1
  O  O12  8  0.18623961  0.23715510  0.94631433  1
