###############################################################################################
#
# CIF file generated by modified CIFWriter class 
# in pymatgen (v2025.03.10) https://pymatgen.org/
#
###############################################################################################
data_PBE+MBD_tight_7e2f12d7bcc4d4a
_symmetry_space_group_name_H-M   P4_12_12
_cell_length_a   10.13403475
_cell_length_b   10.13403475
_cell_length_c   13.02057458
_cell_angle_alpha   90.00000000
_cell_angle_beta   90.00000000
_cell_angle_gamma   90.00000000
_symmetry_Int_Tables_number   92
_chemical_formula_moiety   'C3 H2 N4 O4'
_chemical_formula_sum   'H16 C24 N32 O32'
_cell_volume   1337.19556536
_cell_formula_units_Z   8
loop_
 _symmetry_equiv_pos_site_id
 _symmetry_equiv_pos_as_xyz
  1  'x, y, z'
  2  '-y+1/2, x+1/2, z+1/4'
  3  '-x, -y, z+1/2'
  4  'y+1/2, -x+1/2, z+3/4'
  5  'x+1/2, -y+1/2, -z+3/4'
  6  '-y, -x, -z+1/2'
  7  '-x+1/2, y+1/2, -z+1/4'
  8  'y, x, -z'
loop_
 _atom_site_type_symbol
 _atom_site_label
 _atom_site_symmetry_multiplicity
 _atom_site_fract_x
 _atom_site_fract_y
 _atom_site_fract_z
 _atom_site_occupancy
  H  H0  8  0.03479172  0.42934459  0.25537040  1
  H  H1  8  0.18247338  0.31200813  0.12806310  1
  C  C2  8  0.02868025  0.22626913  0.32983725  1
  C  C3  8  0.06013145  0.32562452  0.25977571  1
  C  C4  8  0.13606086  0.14642191  0.78084215  1
  N  N5  8  -0.05365613  0.24137851  0.41919495  1
  N  N6  8  0.04355415  0.22435848  0.83804606  1
  N  N7  8  0.08269333  0.10880190  0.30452388  1
  N  N8  8  0.13494045  0.26441890  0.18843995  1
  O  O9  8  -0.09788030  0.14183823  0.46067962  1
  O  O10  8  -0.07537272  0.35662411  0.44722929  1
  O  O11  8  -0.06570395  0.24307960  0.79834581  1
  O  O12  8  0.08053151  0.26807936  0.92156198  1
