###############################################################################################
#
# CIF file generated by modified CIFWriter class 
# in pymatgen (v2025.03.10) https://pymatgen.org/
#
###############################################################################################
data_PBE+MBD_tight_7f8d60b44b6ebd3
_symmetry_space_group_name_H-M   P-4b2
_cell_length_a   14.50911331
_cell_length_b   14.50911331
_cell_length_c   7.25362603
_cell_angle_alpha   90.00000000
_cell_angle_beta   90.00000000
_cell_angle_gamma   90.00000000
_symmetry_Int_Tables_number   117
_chemical_formula_moiety   'C3 H2 N4 O4'
_chemical_formula_sum   'H16 C24 N32 O32'
_cell_volume   1526.99250681
_cell_formula_units_Z   8
loop_
 _symmetry_equiv_pos_site_id
 _symmetry_equiv_pos_as_xyz
  1  'x, y, z'
  2  'y, -x, -z'
  3  '-x, -y, z'
  4  '-y, x, -z'
  5  '-x+1/2, y+1/2, z'
  6  '-y+1/2, -x+1/2, -z'
  7  'x+1/2, -y+1/2, z'
  8  'y+1/2, x+1/2, -z'
loop_
 _atom_site_type_symbol
 _atom_site_label
 _atom_site_symmetry_multiplicity
 _atom_site_fract_x
 _atom_site_fract_y
 _atom_site_fract_z
 _atom_site_occupancy
  H  H0  8  0.05869833  0.34365400  0.98855128  1
  H  H1  8  0.13238876  0.32565358  0.66688476  1
  C  C2  8  -0.04365448  0.24432147  0.86915339  1
  C  C3  8  0.02044017  0.23240779  0.61272927  1
  C  C4  8  0.03196544  0.30276274  0.87646316  1
  N  N5  8  -0.10872966  0.23252890  1.01787753  1
  N  N6  8  -0.05051305  0.20031518  0.70551883  1
  N  N7  8  0.04091357  0.21151838  0.42286212  1
  N  N8  8  0.07226376  0.29478764  0.70925876  1
  O  O9  8  -0.16501700  0.16978478  1.00724895  1
  O  O10  8  -0.10247598  0.28838398  1.14677213  1
  O  O11  8  -0.00086937  0.14906487  0.34837032  1
  O  O12  8  0.10020931  0.26155516  0.34782993  1
