###############################################################################################
#
# CIF file generated by modified CIFWriter class 
# in pymatgen (v2025.03.10) https://pymatgen.org/
#
###############################################################################################
data_PBE+MBD_tight_81fbefb0eac081
_symmetry_space_group_name_H-M   P-42_1c
_cell_length_a   14.22145130
_cell_length_b   14.22145130
_cell_length_c   6.18796724
_cell_angle_alpha   90.00000000
_cell_angle_beta   90.00000000
_cell_angle_gamma   90.00000000
_symmetry_Int_Tables_number   114
_chemical_formula_moiety   'C3 H2 N4 O4'
_chemical_formula_sum   'H16 C24 N32 O32'
_cell_volume   1251.51437763
_cell_formula_units_Z   8
loop_
 _symmetry_equiv_pos_site_id
 _symmetry_equiv_pos_as_xyz
  1  'x, y, z'
  2  'y, -x, -z'
  3  '-x, -y, z'
  4  '-y, x, -z'
  5  'x+1/2, -y+1/2, -z+1/2'
  6  'y+1/2, x+1/2, z+1/2'
  7  '-x+1/2, y+1/2, -z+1/2'
  8  '-y+1/2, -x+1/2, z+1/2'
loop_
 _atom_site_type_symbol
 _atom_site_label
 _atom_site_symmetry_multiplicity
 _atom_site_fract_x
 _atom_site_fract_y
 _atom_site_fract_z
 _atom_site_occupancy
  H  H0  8  0.16412983  0.31407084  0.75154867  1
  H  H1  8  0.17700488  0.72272973  0.75014352  1
  C  C2  8  0.09905453  0.76273468  0.25024476  1
  C  C3  8  0.10624286  0.16529974  0.75084192  1
  C  C4  8  0.17172153  0.23810849  0.75102190  1
  N  N5  8  0.00490119  0.17417866  0.75071347  1
  N  N6  8  0.02938673  0.68877412  0.25129235  1
  N  N7  8  0.07961754  0.85271434  0.24988239  1
  N  N8  8  0.19356663  0.74346354  0.24968810  1
  O  O9  8  -0.05362034  0.71402098  0.25249116  1
  O  O10  8  -0.04268787  0.10297904  0.75142398  1
  O  O11  8  -0.02739746  0.25619678  0.74974438  1
  O  O12  8  0.05856838  0.60755961  0.25092541  1
