###############################################################################################
#
# CIF file generated by modified CIFWriter class 
# in pymatgen (v2025.03.10) https://pymatgen.org/
#
###############################################################################################
data_PBE+MBD_tight_82f068f5cc24589
_symmetry_space_group_name_H-M   P-42_1c
_cell_length_a   6.84619415
_cell_length_b   6.84619415
_cell_length_c   28.61767337
_cell_angle_alpha   90.00000000
_cell_angle_beta   90.00000000
_cell_angle_gamma   90.00000000
_symmetry_Int_Tables_number   114
_chemical_formula_moiety   'C3 H2 N4 O4'
_chemical_formula_sum   'H16 C24 N32 O32'
_cell_volume   1341.32106497
_cell_formula_units_Z   8
loop_
 _symmetry_equiv_pos_site_id
 _symmetry_equiv_pos_as_xyz
  1  'x, y, z'
  2  'y, -x, -z'
  3  '-x, -y, z'
  4  '-y, x, -z'
  5  'x+1/2, -y+1/2, -z+1/2'
  6  'y+1/2, x+1/2, z+1/2'
  7  '-x+1/2, y+1/2, -z+1/2'
  8  '-y+1/2, -x+1/2, z+1/2'
loop_
 _atom_site_type_symbol
 _atom_site_label
 _atom_site_symmetry_multiplicity
 _atom_site_fract_x
 _atom_site_fract_y
 _atom_site_fract_z
 _atom_site_occupancy
  H  H0  8  0.01653675  0.77348889  0.12935571  1
  H  H1  8  0.21015723  0.75796604  0.20668904  1
  C  C2  8  0.03455796  0.25222837  0.33757088  1
  C  C3  8  0.17421866  0.76858944  0.13220581  1
  C  C4  8  0.17916924  0.26698970  0.40174230  1
  N  N5  8  -0.11335400  0.23992935  0.30280843  1
  N  N6  8  -0.00033150  0.25631779  0.38300275  1
  N  N7  8  0.21350559  0.27611626  0.45221419  1
  N  N8  8  0.22934298  0.25966496  0.32648391  1
  O  O9  8  -0.05623511  0.24083957  0.26122196  1
  O  O10  8  0.07038850  0.27677172  0.47767072  1
  O  O11  8  0.11329064  0.78226821  0.03638093  1
  O  O12  8  0.21506418  0.27134496  0.18469918  1
