###############################################################################################
#
# CIF file generated by modified CIFWriter class 
# in pymatgen (v2025.03.10) https://pymatgen.org/
#
###############################################################################################
data_PBE+MBD_tight_8548908f1be095b
_symmetry_space_group_name_H-M   P4_2/n
_cell_length_a   10.05886652
_cell_length_b   10.05886652
_cell_length_c   12.31178963
_cell_angle_alpha   90.00000000
_cell_angle_beta   90.00000000
_cell_angle_gamma   90.00000000
_symmetry_Int_Tables_number   86
_chemical_formula_moiety   'C3 H2 N4 O4'
_chemical_formula_sum   'H16 C24 N32 O32'
_cell_volume   1245.71666991
_cell_formula_units_Z   8
loop_
 _symmetry_equiv_pos_site_id
 _symmetry_equiv_pos_as_xyz
  1  'x, y, z'
  2  '-y+1/2, x+1/2, z+1/2'
  3  '-x, -y, z'
  4  'y+1/2, -x+1/2, z+1/2'
  5  '-x+1/2, -y+1/2, -z+1/2'
  6  'y, -x, -z'
  7  'x+1/2, y+1/2, -z+1/2'
  8  '-y, x, -z'
loop_
 _atom_site_type_symbol
 _atom_site_label
 _atom_site_symmetry_multiplicity
 _atom_site_fract_x
 _atom_site_fract_y
 _atom_site_fract_z
 _atom_site_occupancy
  H  H0  8  0.06369579  0.70232976  0.42880964  1
  H  H1  8  0.14199675  0.66392104  0.23302151  1
  C  C2  8  0.00750421  0.23602986  0.80054438  1
  C  C3  8  0.02846041  0.29704739  0.96130646  1
  C  C4  8  0.12616266  0.36618808  0.90393614  1
  N  N5  8  -0.04543868  0.21693705  0.89674606  1
  N  N6  8  -0.03226725  0.16836876  0.70197961  1
  N  N7  8  0.00484216  0.30851692  1.07528533  1
  N  N8  8  0.11032265  0.32529598  0.80033060  1
  O  O9  8  -0.09160736  0.24827952  1.11468073  1
  O  O10  8  0.04099620  0.18409465  0.62250987  1
  O  O11  8  0.07969313  0.38069721  1.12799193  1
  O  O12  8  0.10105506  1.13413323  0.29495639  1
