###############################################################################################
#
# CIF file generated by modified CIFWriter class 
# in pymatgen (v2025.03.10) https://pymatgen.org/
#
###############################################################################################
data_PBE+MBD_tight_885f6e6c2b6d2c5
_symmetry_space_group_name_H-M   C222_1
_cell_length_a   17.91462690
_cell_length_b   6.45942374
_cell_length_c   10.66927425
_cell_angle_alpha   90.00000000
_cell_angle_beta   90.00000000
_cell_angle_gamma   90.00000000
_symmetry_Int_Tables_number   20
_chemical_formula_moiety   'C3 H2 N4 O4'
_chemical_formula_sum   'H16 C24 N32 O32'
_cell_volume   1234.62885199
_cell_formula_units_Z   8
loop_
 _symmetry_equiv_pos_site_id
 _symmetry_equiv_pos_as_xyz
  1  'x, y, z'
  2  '-x, -y, z+1/2'
  3  '-x, y, -z+1/2'
  4  'x, -y, -z'
  5  'x+1/2, y+1/2, z'
  6  '-x+1/2, -y+1/2, z+1/2'
  7  '-x+1/2, y+1/2, -z+1/2'
  8  'x+1/2, -y+1/2, -z'
loop_
 _atom_site_type_symbol
 _atom_site_label
 _atom_site_symmetry_multiplicity
 _atom_site_fract_x
 _atom_site_fract_y
 _atom_site_fract_z
 _atom_site_occupancy
  H  H0  8  0.17648281  0.24913029  0.58165233  1
  H  H1  8  0.18005525  0.24951265  1.08061502  1
  C  C2  8  0.19007058  0.24905464  0.87837900  1
  C  C3  8  0.19325293  0.24951950  0.37060209  1
  C  C4  8  0.21078056  0.24954239  0.49764644  1
  N  N5  8  0.11150779  0.24854213  0.84460789  1
  N  N6  8  0.11911483  0.24781215  0.31816665  1
  N  N7  8  0.21347976  0.24954766  1.00042980  1
  N  N8  8  0.24519836  0.24956804  0.79691372  1
  O  O9  8  0.06680214  0.24516319  0.39138810  1
  O  O10  8  0.06694333  0.24821061  0.93174622  1
  O  O11  8  0.09680349  0.24857386  0.73165102  1
  O  O12  8  0.11315588  0.24891197  0.20157957  1
