###############################################################################################
#
# CIF file generated by modified CIFWriter class 
# in pymatgen (v2025.03.10) https://pymatgen.org/
#
###############################################################################################
data_PBE+MBD_tight_8a90bfadf0c41b4
_symmetry_space_group_name_H-M   Aea2
_cell_length_a   14.11901392
_cell_length_b   11.04104615
_cell_length_c   9.14844911
_cell_angle_alpha   90.00000000
_cell_angle_beta   90.00000000
_cell_angle_gamma   90.00000000
_symmetry_Int_Tables_number   41
_chemical_formula_moiety   'C3 H2 N4 O4'
_chemical_formula_sum   'H16 C24 N32 O32'
_cell_volume   1426.13969500
_cell_formula_units_Z   8
loop_
 _symmetry_equiv_pos_site_id
 _symmetry_equiv_pos_as_xyz
  1  'x, y, z'
  2  '-x, -y, z'
  3  '-x+1/2, y+1/2, z'
  4  'x+1/2, -y+1/2, z'
  5  'x, y+1/2, z+1/2'
  6  '-x, -y+1/2, z+1/2'
  7  '-x+1/2, y, z+1/2'
  8  'x+1/2, -y, z+1/2'
loop_
 _atom_site_type_symbol
 _atom_site_label
 _atom_site_symmetry_multiplicity
 _atom_site_fract_x
 _atom_site_fract_y
 _atom_site_fract_z
 _atom_site_occupancy
  H  H0  8  0.01319022  0.33857030  0.03801285  1
  H  H1  8  0.14538673  0.45592715  -0.09760907  1
  C  C2  8  0.08836214  0.32074525  0.04627740  1
  C  C3  8  0.13856243  0.23086409  0.12005265  1
  C  C4  8  0.24057940  0.33217053  0.00975371  1
  N  N5  8  0.09863245  0.13951002  0.21290144  1
  N  N6  8  0.15566697  0.38523881  -0.02408421  1
  N  N7  8  0.17085241  0.37869610  0.45359057  1
  N  N8  8  0.23310023  0.23805083  0.09664182  1
  O  O9  8  0.01394774  0.14652744  0.24321353  1
  O  O10  8  0.09973432  0.31594825  0.47102364  1
  O  O11  8  0.15365940  0.05984592  0.25759755  1
  O  O12  8  0.17400064  0.47779253  0.39130405  1
