###############################################################################################
#
# CIF file generated by modified CIFWriter class 
# in pymatgen (v2025.03.10) https://pymatgen.org/
#
###############################################################################################
data_PBE+MBD_tight_8c841e22c18e088
_symmetry_space_group_name_H-M   Pbca
_cell_length_a   10.01771680
_cell_length_b   18.60828077
_cell_length_c   6.35448178
_cell_angle_alpha   90.00000000
_cell_angle_beta   90.00000000
_cell_angle_gamma   90.00000000
_symmetry_Int_Tables_number   61
_chemical_formula_moiety   'C3 H2 N4 O4'
_chemical_formula_sum   'H16 C24 N32 O32'
_cell_volume   1184.55475118
_cell_formula_units_Z   8
loop_
 _symmetry_equiv_pos_site_id
 _symmetry_equiv_pos_as_xyz
  1  'x, y, z'
  2  '-x, -y, -z'
  3  '-x, y+1/2, -z+1/2'
  4  'x, -y+1/2, z+1/2'
  5  '-x+1/2, -y, z+1/2'
  6  'x+1/2, y, -z+1/2'
  7  'x+1/2, -y+1/2, -z'
  8  '-x+1/2, y+1/2, z'
loop_
 _atom_site_type_symbol
 _atom_site_label
 _atom_site_symmetry_multiplicity
 _atom_site_fract_x
 _atom_site_fract_y
 _atom_site_fract_z
 _atom_site_occupancy
  H  H0  8  -0.03580455  0.16890811  0.58230392  1
  H  H1  8  0.01770826  0.10734051  0.23520268  1
  C  C2  8  -0.24856353  0.14997571  0.47866898  1
  C  C3  8  -0.19821235  0.09784920  0.19741105  1
  C  C4  8  -0.10971626  0.14824568  0.47321012  1
  N  N5  8  -0.20570670  0.06126797  -0.00164844  1
  N  N6  8  -0.07989887  0.11470686  0.29112458  1
  N  N7  8  0.17122192  0.18309312  0.86244073  1
  N  N8  8  0.19672727  0.11857727  1.19305605  1
  O  O9  8  -0.09907588  0.04743334  -0.08944458  1
  O  O10  8  0.05023831  0.18915087  0.89456692  1
  O  O11  8  0.18184683  0.04707452  1.56996179  1
  O  O12  8  0.22955197  0.20383724  0.70161784  1
