###############################################################################################
#
# CIF file generated by modified CIFWriter class 
# in pymatgen (v2025.03.10) https://pymatgen.org/
#
###############################################################################################
data_PBE+MBD_tight_8d41f8b771ce774
_symmetry_space_group_name_H-M   I222
_cell_length_a   6.80907504
_cell_length_b   12.41082161
_cell_length_c   21.64220488
_cell_angle_alpha   90.00000000
_cell_angle_beta   90.00000000
_cell_angle_gamma   90.00000000
_symmetry_Int_Tables_number   23
_chemical_formula_moiety   'C3 H2 N4 O4'
_chemical_formula_sum   'H16 C24 N32 O32'
_cell_volume   1828.90083225
_cell_formula_units_Z   8
loop_
 _symmetry_equiv_pos_site_id
 _symmetry_equiv_pos_as_xyz
  1  'x, y, z'
  2  '-x, -y, z'
  3  'x, -y, -z'
  4  '-x, y, -z'
  5  'x+1/2, y+1/2, z+1/2'
  6  '-x+1/2, -y+1/2, z+1/2'
  7  'x+1/2, -y+1/2, -z+1/2'
  8  '-x+1/2, y+1/2, -z+1/2'
loop_
 _atom_site_type_symbol
 _atom_site_label
 _atom_site_symmetry_multiplicity
 _atom_site_fract_x
 _atom_site_fract_y
 _atom_site_fract_z
 _atom_site_occupancy
  H  H0  8  0.04947758  0.13171962  0.66139258  1
  H  H1  8  0.13978820  0.44112004  0.21287472  1
  C  C2  8  0.00685910  0.29328929  0.16685070  1
  C  C3  8  0.14472148  0.62913241  0.81664771  1
  C  C4  8  0.23378937  0.25437375  0.62331881  1
  N  N5  8  -0.19568487  0.29111122  0.18488731  1
  N  N6  8  0.08344806  0.21516938  0.13019878  1
  N  N7  8  0.09031759  0.30508121  0.58253629  1
  N  N8  8  0.18857261  0.83833860  0.34523599  1
  O  O9  8  -0.05402498  0.75183781  0.43012998  1
  O  O10  8  0.12455578  0.39595249  0.56449732  1
  O  O11  8  0.21917357  0.70421188  0.68706963  1
  O  O12  8  0.22509866  0.12006828  0.30302643  1
