###############################################################################################
#
# CIF file generated by modified CIFWriter class 
# in pymatgen (v2025.03.10) https://pymatgen.org/
#
###############################################################################################
data_PBE+MBD_tight_8e02b905f87d325
_symmetry_space_group_name_H-M   P4/n
_cell_length_a   13.98532692
_cell_length_b   13.98532692
_cell_length_c   6.75316569
_cell_angle_alpha   90.00000000
_cell_angle_beta   90.00000000
_cell_angle_gamma   90.00000000
_symmetry_Int_Tables_number   85
_chemical_formula_moiety   'C3 H2 N4 O4'
_chemical_formula_sum   'H16 C24 N32 O32'
_cell_volume   1320.84741531
_cell_formula_units_Z   8
loop_
 _symmetry_equiv_pos_site_id
 _symmetry_equiv_pos_as_xyz
  1  'x, y, z'
  2  '-y+1/2, x+1/2, z'
  3  '-x, -y, z'
  4  'y+1/2, -x+1/2, z'
  5  '-x+1/2, -y+1/2, -z'
  6  'y, -x, -z'
  7  'x+1/2, y+1/2, -z'
  8  '-y, x, -z'
loop_
 _atom_site_type_symbol
 _atom_site_label
 _atom_site_symmetry_multiplicity
 _atom_site_fract_x
 _atom_site_fract_y
 _atom_site_fract_z
 _atom_site_occupancy
  H  H0  8  0.15377009  0.34331790  0.32881317  1
  H  H1  8  0.19580006  0.24929872  0.77759604  1
  C  C2  8  0.08068447  0.20817846  0.29606389  1
  C  C3  8  0.12748038  0.80134951  0.78827180  1
  C  C4  8  0.22029642  0.76672157  0.76236961  1
  N  N5  8  -0.01484425  0.23847151  0.33633598  1
  N  N6  8  0.04568623  0.74493791  0.84796555  1
  N  N7  8  0.10432946  0.12013454  0.24807172  1
  N  N8  8  0.15564231  0.27109617  0.29438078  1
  O  O9  8  -0.07975336  0.18038144  0.31351747  1
  O  O10  8  -0.03445588  0.77681415  0.81031833  1
  O  O11  8  -0.02605511  0.32340825  0.38930304  1
  O  O12  8  0.06285752  0.66880859  0.93343662  1
