###############################################################################################
#
# CIF file generated by modified CIFWriter class 
# in pymatgen (v2025.03.10) https://pymatgen.org/
#
###############################################################################################
data_PBE+MBD_tight_8fdceff6bde014a
_symmetry_space_group_name_H-M   Pbca
_cell_length_a   10.24480237
_cell_length_b   10.03289424
_cell_length_c   12.01450848
_cell_angle_alpha   90.00000000
_cell_angle_beta   90.00000000
_cell_angle_gamma   90.00000000
_symmetry_Int_Tables_number   61
_chemical_formula_moiety   'C3 H2 N4 O4'
_chemical_formula_sum   'H16 C24 N32 O32'
_cell_volume   1234.91147942
_cell_formula_units_Z   8
loop_
 _symmetry_equiv_pos_site_id
 _symmetry_equiv_pos_as_xyz
  1  'x, y, z'
  2  '-x, -y, -z'
  3  'x+1/2, -y+1/2, -z'
  4  '-x+1/2, y+1/2, z'
  5  '-x, y+1/2, -z+1/2'
  6  'x, -y+1/2, z+1/2'
  7  '-x+1/2, -y, z+1/2'
  8  'x+1/2, y, -z+1/2'
loop_
 _atom_site_type_symbol
 _atom_site_label
 _atom_site_symmetry_multiplicity
 _atom_site_fract_x
 _atom_site_fract_y
 _atom_site_fract_z
 _atom_site_occupancy
  H  H0  8  0.12776282  0.01364692  0.74545021  1
  H  H1  8  0.23449425  0.46653006  0.91593713  1
  C  C2  8  0.14625937  0.22641650  0.80408716  1
  C  C3  8  0.16088315  0.08863486  0.80371620  1
  C  C4  8  0.24262957  0.68089554  0.94535067  1
  N  N5  8  0.08213463  0.19707414  0.21942396  1
  N  N6  8  0.16535033  0.69030182  1.04460693  1
  N  N7  8  0.20660879  0.21623674  0.39229912  1
  N  N8  8  0.23237598  0.06184302  0.89511558  1
  O  O9  8  0.02115214  0.23983449  0.64786902  1
  O  O10  8  0.09388704  0.07468046  0.22198130  1
  O  O11  8  0.11771475  0.58474131  1.07938580  1
  O  O12  8  0.15230307  0.69901875  0.58754884  1
