###############################################################################################
#
# CIF file generated by modified CIFWriter class 
# in pymatgen (v2025.03.10) https://pymatgen.org/
#
###############################################################################################
data_PBE+MBD_tight_9b37e6eeab96e9a
_symmetry_space_group_name_H-M   P4_32_12
_cell_length_a   11.23285019
_cell_length_b   11.23285019
_cell_length_c   11.16455264
_cell_angle_alpha   90.00000000
_cell_angle_beta   90.00000000
_cell_angle_gamma   90.00000000
_symmetry_Int_Tables_number   96
_chemical_formula_moiety   'C3 H2 N4 O4'
_chemical_formula_sum   'H16 C24 N32 O32'
_cell_volume   1408.70890346
_cell_formula_units_Z   8
loop_
 _symmetry_equiv_pos_site_id
 _symmetry_equiv_pos_as_xyz
  1  'x, y, z'
  2  '-y+1/2, x+1/2, z+3/4'
  3  '-x, -y, z+1/2'
  4  'y+1/2, -x+1/2, z+1/4'
  5  'x+1/2, -y+1/2, -z+1/4'
  6  '-y, -x, -z+1/2'
  7  '-x+1/2, y+1/2, -z+3/4'
  8  'y, x, -z'
loop_
 _atom_site_type_symbol
 _atom_site_label
 _atom_site_symmetry_multiplicity
 _atom_site_fract_x
 _atom_site_fract_y
 _atom_site_fract_z
 _atom_site_occupancy
  H  H0  8  0.10450000  0.65720552  -0.09306957  1
  H  H1  8  0.19322982  0.72403361  0.60638981  1
  C  C2  8  0.03223493  0.79496840  0.03702204  1
  C  C3  8  0.08625522  0.82726712  0.48481444  1
  C  C4  8  0.10829840  0.74148455  -0.04584678  1
  N  N5  8  -0.07869015  0.74533676  0.07875133  1
  N  N6  8  -0.01296135  0.74841075  0.47638215  1
  N  N7  8  0.07220928  0.90178792  0.07451592  1
  N  N8  8  0.17941977  0.80235796  0.55961193  1
  O  O9  8  -0.14458054  0.80944590  0.13885915  1
  O  O10  8  -0.09979065  0.64105895  0.05000104  1
  O  O11  8  -0.09376659  0.77564260  0.40599279  1
  O  O12  8  -0.01130203  0.65876413  0.54069269  1
