###############################################################################################
#
# CIF file generated by modified CIFWriter class 
# in pymatgen (v2025.03.10) https://pymatgen.org/
#
###############################################################################################
data_PBE+MBD_tight_9fcb4df78f2e6a
_symmetry_space_group_name_H-M   P-42_1c
_cell_length_a   8.40728379
_cell_length_b   8.40728379
_cell_length_c   18.39092332
_cell_angle_alpha   90.00000000
_cell_angle_beta   90.00000000
_cell_angle_gamma   90.00000000
_symmetry_Int_Tables_number   114
_chemical_formula_moiety   'C3 H2 N4 O4'
_chemical_formula_sum   'H16 C24 N32 O32'
_cell_volume   1299.91497865
_cell_formula_units_Z   8
loop_
 _symmetry_equiv_pos_site_id
 _symmetry_equiv_pos_as_xyz
  1  'x, y, z'
  2  'y, -x, -z'
  3  '-x, -y, z'
  4  '-y, x, -z'
  5  'x+1/2, -y+1/2, -z+1/2'
  6  'y+1/2, x+1/2, z+1/2'
  7  '-x+1/2, y+1/2, -z+1/2'
  8  '-y+1/2, -x+1/2, z+1/2'
loop_
 _atom_site_type_symbol
 _atom_site_label
 _atom_site_symmetry_multiplicity
 _atom_site_fract_x
 _atom_site_fract_y
 _atom_site_fract_z
 _atom_site_occupancy
  H  H0  8  0.05129248  0.13705893  0.41901655  1
  H  H1  8  0.13785158  0.23484937  0.29191832  1
  C  C2  8  -0.13503231  0.67273285  0.95401604  1
  C  C3  8  -0.06551163  0.73696550  0.84933776  1
  C  C4  8  0.11648555  0.24519973  0.40819207  1
  N  N5  8  -0.13268040  0.65596811  1.03231683  1
  N  N6  8  -0.01721478  0.74637540  0.91739689  1
  N  N7  8  0.01356897  0.80247851  0.78758839  1
  N  N8  8  0.15837630  0.29309880  0.34088648  1
  O  O9  8  -0.05071535  0.78415402  0.72766760  1
  O  O10  8  -0.00869283  0.68661634  1.06445357  1
  O  O11  8  0.10929758  0.24225077  0.56064746  1
  O  O12  8  0.12691141  0.14162435  0.20260953  1
