###############################################################################################
#
# CIF file generated by modified CIFWriter class 
# in pymatgen (v2025.03.10) https://pymatgen.org/
#
###############################################################################################
data_PBE+MBD_tight_a562998b1f7e56f
_symmetry_space_group_name_H-M   P4_2/m
_cell_length_a   6.58390159
_cell_length_b   6.58390159
_cell_length_c   37.11309970
_cell_angle_alpha   90.00000000
_cell_angle_beta   90.00000000
_cell_angle_gamma   90.00000000
_symmetry_Int_Tables_number   84
_chemical_formula_moiety   'C3 H2 N4 O4'
_chemical_formula_sum   'H16 C24 N32 O32'
_cell_volume   1608.76974524
_cell_formula_units_Z   8
loop_
 _symmetry_equiv_pos_site_id
 _symmetry_equiv_pos_as_xyz
  1  'x, y, z'
  2  '-x, -y, -z'
  3  '-y, x, z+1/2'
  4  'y, -x, -z+1/2'
  5  '-x, -y, z'
  6  'x, y, -z'
  7  'y, -x, z+1/2'
  8  '-y, x, -z+1/2'
loop_
 _atom_site_type_symbol
 _atom_site_label
 _atom_site_symmetry_multiplicity
 _atom_site_fract_x
 _atom_site_fract_y
 _atom_site_fract_z
 _atom_site_occupancy
  H  H0  8  0.06520450  0.25722160  0.35325987  1
  H  H1  8  0.22799357  0.24832739  0.70960175  1
  C  C2  8  0.24637264  0.48442729  0.17594850  1
  C  C3  8  0.24898419  0.69044180  0.81578288  1
  C  C4  8  0.25398465  0.63176393  0.12609471  1
  N  N5  8  0.21812591  0.25427846  0.65152029  1
  N  N6  8  0.23558921  0.32232543  0.20175866  1
  N  N7  8  0.24982291  0.44832701  0.13986889  1
  N  N8  8  0.25588765  0.68315946  0.91223656  1
  O  O9  8  0.13296575  0.25853592  0.58129806  1
  O  O10  8  0.14538393  0.75285595  0.69061789  1
  O  O11  8  0.21321886  0.37037621  0.23362029  1
  O  O12  8  0.25435005  0.54258344  0.06636120  1
