###############################################################################################
#
# CIF file generated by modified CIFWriter class 
# in pymatgen (v2025.03.10) https://pymatgen.org/
#
###############################################################################################
data_PBE+MBD_tight_aa80efa0773ff5e
_symmetry_space_group_name_H-M   Pbcn
_cell_length_a   13.32069907
_cell_length_b   13.10313426
_cell_length_c   8.99107158
_cell_angle_alpha   90.00000000
_cell_angle_beta   90.00000000
_cell_angle_gamma   90.00000000
_symmetry_Int_Tables_number   60
_chemical_formula_moiety   'C3 H2 N4 O4'
_chemical_formula_sum   'H16 C24 N32 O32'
_cell_volume   1569.32778283
_cell_formula_units_Z   8
loop_
 _symmetry_equiv_pos_site_id
 _symmetry_equiv_pos_as_xyz
  1  'x, y, z'
  2  '-x, -y, -z'
  3  '-x+1/2, -y+1/2, z+1/2'
  4  'x+1/2, y+1/2, -z+1/2'
  5  'x+1/2, -y+1/2, -z'
  6  '-x+1/2, y+1/2, z'
  7  '-x, y, -z+1/2'
  8  'x, -y, z+1/2'
loop_
 _atom_site_type_symbol
 _atom_site_label
 _atom_site_symmetry_multiplicity
 _atom_site_fract_x
 _atom_site_fract_y
 _atom_site_fract_z
 _atom_site_occupancy
  H  H0  8  0.21323152  0.43836317  0.96150307  1
  H  H1  8  0.23778758  0.23680983  0.35465717  1
  C  C2  8  0.13694682  0.15160203  0.21393296  1
  C  C3  8  0.17162420  0.00649792  0.29269706  1
  C  C4  8  0.23164581  0.07340105  0.37466363  1
  N  N5  8  0.09536818  0.23603353  0.13134659  1
  N  N6  8  0.11288474  0.05552732  0.19304879  1
  N  N7  8  0.17246706  -0.10245295  0.30313679  1
  N  N8  8  0.20848196  0.16656377  0.32089677  1
  O  O9  8  0.01961667  0.22038766  0.05707638  1
  O  O10  8  0.12438438  -0.15318362  0.21404393  1
  O  O11  8  0.14032090  0.31864907  0.14238084  1
  O  O12  8  0.22624193  -0.13933710  0.40470408  1
