###############################################################################################
#
# CIF file generated by modified CIFWriter class 
# in pymatgen (v2025.03.10) https://pymatgen.org/
#
###############################################################################################
data_PBE+MBD_tight_ab1e6e5f5d11b23
_symmetry_space_group_name_H-M   P-4b2
_cell_length_a   10.36761585
_cell_length_b   10.36761585
_cell_length_c   16.25284629
_cell_angle_alpha   90.00000000
_cell_angle_beta   90.00000000
_cell_angle_gamma   90.00000000
_symmetry_Int_Tables_number   117
_chemical_formula_moiety   'C3 H2 N4 O4'
_chemical_formula_sum   'H16 C24 N32 O32'
_cell_volume   1746.97713968
_cell_formula_units_Z   8
loop_
 _symmetry_equiv_pos_site_id
 _symmetry_equiv_pos_as_xyz
  1  'x, y, z'
  2  'y, -x, -z'
  3  '-x, -y, z'
  4  '-y, x, -z'
  5  '-x+1/2, y+1/2, z'
  6  '-y+1/2, -x+1/2, -z'
  7  'x+1/2, -y+1/2, z'
  8  'y+1/2, x+1/2, -z'
loop_
 _atom_site_type_symbol
 _atom_site_label
 _atom_site_symmetry_multiplicity
 _atom_site_fract_x
 _atom_site_fract_y
 _atom_site_fract_z
 _atom_site_occupancy
  H  H0  8  -0.02480664  0.30722340  0.28554327  1
  H  H1  8  -0.01841063  0.12509051  0.38809989  1
  C  C2  8  0.06526389  0.16311804  0.35614378  1
  C  C3  8  0.13189608  0.80443226  0.64002628  1
  C  C4  8  0.18272119  0.28471581  0.27622610  1
  N  N5  8  0.03057321  0.74748129  0.59196637  1
  N  N6  8  0.05935328  0.26102629  0.30154723  1
  N  N7  8  0.11193713  0.28531935  0.77995911  1
  N  N8  8  0.20787673  0.73159492  0.68952398  1
  O  O9  8  -0.03881142  0.82234430  0.55194476  1
  O  O10  8  0.01788645  0.62967383  0.59439179  1
  O  O11  8  0.05498660  0.37698152  0.81165689  1
  O  O12  8  0.08807134  0.16992259  0.78994114  1
