###############################################################################################
#
# CIF file generated by modified CIFWriter class 
# in pymatgen (v2025.03.10) https://pymatgen.org/
#
###############################################################################################
data_PBE+MBD_tight_ab892cde7b419ba
_symmetry_space_group_name_H-M   Iba2
_cell_length_a   10.21689479
_cell_length_b   11.09718638
_cell_length_c   11.77268383
_cell_angle_alpha   90.00000000
_cell_angle_beta   90.00000000
_cell_angle_gamma   90.00000000
_symmetry_Int_Tables_number   45
_chemical_formula_moiety   'C3 H2 N4 O4'
_chemical_formula_sum   'H16 C24 N32 O32'
_cell_volume   1334.77259849
_cell_formula_units_Z   8
loop_
 _symmetry_equiv_pos_site_id
 _symmetry_equiv_pos_as_xyz
  1  'x, y, z'
  2  '-x, -y, z'
  3  '-x, y, z+1/2'
  4  'x, -y, z+1/2'
  5  'x+1/2, y+1/2, z+1/2'
  6  '-x+1/2, -y+1/2, z+1/2'
  7  '-x+1/2, y+1/2, z'
  8  'x+1/2, -y+1/2, z'
loop_
 _atom_site_type_symbol
 _atom_site_label
 _atom_site_symmetry_multiplicity
 _atom_site_fract_x
 _atom_site_fract_y
 _atom_site_fract_z
 _atom_site_occupancy
  H  H0  8  -0.00734610  0.27676483  0.44407980  1
  H  H1  8  -0.00421207  0.10866468  0.29528810  1
  C  C2  8  0.07889479  0.13552240  0.34694500  1
  C  C3  8  0.19628309  0.23630060  0.46834366  1
  C  C4  8  0.20789380  0.09491290  0.35140915  1
  N  N5  8  0.07347225  0.22539860  0.42419051  1
  N  N6  8  0.21872689  0.34070621  0.92588234  1
  N  N7  8  0.22611935  0.32237300  0.55592139  1
  N  N8  8  0.24125862  0.50993689  0.79396898  1
  O  O9  8  0.12827000  0.45979687  0.31374181  1
  O  O10  8  0.13195256  0.37139954  0.60240742  1
  O  O11  8  0.15721279  0.16051558  1.07764887  1
  O  O12  8  0.18186408  -0.06479892  0.23043466  1
