###############################################################################################
#
# CIF file generated by modified CIFWriter class 
# in pymatgen (v2025.03.10) https://pymatgen.org/
#
###############################################################################################
data_PBE+MBD_tight_ae8d0281f6b727
_symmetry_space_group_name_H-M   Pbcn
_cell_length_a   11.70077647
_cell_length_b   17.71121012
_cell_length_c   7.01940670
_cell_angle_alpha   90.00000000
_cell_angle_beta   90.00000000
_cell_angle_gamma   90.00000000
_symmetry_Int_Tables_number   60
_chemical_formula_moiety   'C3 H2 N4 O4'
_chemical_formula_sum   'H16 C24 N32 O32'
_cell_volume   1454.66611989
_cell_formula_units_Z   8
loop_
 _symmetry_equiv_pos_site_id
 _symmetry_equiv_pos_as_xyz
  1  'x, y, z'
  2  '-x, -y, -z'
  3  '-x+1/2, -y+1/2, z+1/2'
  4  'x+1/2, y+1/2, -z+1/2'
  5  'x+1/2, -y+1/2, -z'
  6  '-x+1/2, y+1/2, z'
  7  '-x, y, -z+1/2'
  8  'x, -y, z+1/2'
loop_
 _atom_site_type_symbol
 _atom_site_label
 _atom_site_symmetry_multiplicity
 _atom_site_fract_x
 _atom_site_fract_y
 _atom_site_fract_z
 _atom_site_occupancy
  H  H0  8  0.06195236  0.08395598  0.40474218  1
  H  H1  8  0.14898294  0.16519395  0.67120986  1
  C  C2  8  0.18901025  0.15266289  0.53553436  1
  C  C3  8  0.20862004  0.32287587  -0.04573138  1
  C  C4  8  0.21362799  0.11090687  0.24647382  1
  N  N5  8  0.13022406  0.27113829  0.04436921  1
  N  N6  8  0.14005040  0.11049580  0.39798188  1
  N  N7  8  0.18754986  0.07155953  0.07418205  1
  N  N8  8  0.19372065  0.34831067  -0.22484095  1
  O  O9  8  0.07524474  0.22747077  -0.05786118  1
  O  O10  8  0.08868662  0.04503999  0.06118066  1
  O  O11  8  0.12731630  0.27283734  0.21983103  1
  O  O12  8  0.23870781  0.43413099  -0.54891278  1
