###############################################################################################
#
# CIF file generated by modified CIFWriter class 
# in pymatgen (v2025.03.10) https://pymatgen.org/
#
###############################################################################################
data_PBE+MBD_tight_afe8debb3e1ea70
_symmetry_space_group_name_H-M   Pbcn
_cell_length_a   15.36283058
_cell_length_b   12.71426896
_cell_length_c   6.71257766
_cell_angle_alpha   90.00000000
_cell_angle_beta   90.00000000
_cell_angle_gamma   90.00000000
_symmetry_Int_Tables_number   60
_chemical_formula_moiety   'C3 H2 N4 O4'
_chemical_formula_sum   'H16 C24 N32 O32'
_cell_volume   1311.14873161
_cell_formula_units_Z   8
loop_
 _symmetry_equiv_pos_site_id
 _symmetry_equiv_pos_as_xyz
  1  'x, y, z'
  2  '-x, -y, -z'
  3  '-x+1/2, -y+1/2, z+1/2'
  4  'x+1/2, y+1/2, -z+1/2'
  5  'x+1/2, -y+1/2, -z'
  6  '-x+1/2, y+1/2, z'
  7  '-x, y, -z+1/2'
  8  'x, -y, z+1/2'
loop_
 _atom_site_type_symbol
 _atom_site_label
 _atom_site_symmetry_multiplicity
 _atom_site_fract_x
 _atom_site_fract_y
 _atom_site_fract_z
 _atom_site_occupancy
  H  H0  8  0.17224787  0.37126768  1.05594586  1
  H  H1  8  0.20489725  0.26646120  0.57667191  1
  C  C2  8  0.08711348  0.23749461  1.01197115  1
  C  C3  8  0.18184607  0.12119511  1.03029655  1
  C  C4  8  0.22651729  0.21585844  1.05681011  1
  N  N5  8  0.00601670  0.29430205  0.99325036  1
  N  N6  8  0.09554185  0.13511076  1.00165552  1
  N  N7  8  0.16373460  0.29019730  1.04423743  1
  N  N8  8  0.21917880  0.01781135  1.03361778  1
  O  O9  8  -0.06041597  0.24240497  0.96121814  1
  O  O10  8  0.01037263  0.39054811  1.01137132  1
  O  O11  8  0.17431167  -0.05731040  0.98209626  1
  O  O12  8  0.20342629  0.48938544  0.59049651  1
