###############################################################################################
#
# CIF file generated by modified CIFWriter class 
# in pymatgen (v2025.03.10) https://pymatgen.org/
#
###############################################################################################
data_PBE+MBD_tight_b26dc907d746fa0
_symmetry_space_group_name_H-M   Pbca
_cell_length_a   14.12878357
_cell_length_b   8.98879417
_cell_length_c   10.41020858
_cell_angle_alpha   90.00000000
_cell_angle_beta   90.00000000
_cell_angle_gamma   90.00000000
_symmetry_Int_Tables_number   61
_chemical_formula_moiety   'C3 H2 N4 O4'
_chemical_formula_sum   'H16 C24 N32 O32'
_cell_volume   1322.10406167
_cell_formula_units_Z   8
loop_
 _symmetry_equiv_pos_site_id
 _symmetry_equiv_pos_as_xyz
  1  'x, y, z'
  2  '-x, -y, -z'
  3  'x+1/2, -y+1/2, -z'
  4  '-x+1/2, y+1/2, z'
  5  '-x, y+1/2, -z+1/2'
  6  'x, -y+1/2, z+1/2'
  7  '-x+1/2, -y, z+1/2'
  8  'x+1/2, y, -z+1/2'
loop_
 _atom_site_type_symbol
 _atom_site_label
 _atom_site_symmetry_multiplicity
 _atom_site_fract_x
 _atom_site_fract_y
 _atom_site_fract_z
 _atom_site_occupancy
  H  H0  8  0.10686043  -0.06810279  0.87340251  1
  H  H1  8  0.22795780  0.03163706  0.71018508  1
  C  C2  8  0.00343745  0.03866631  0.73371998  1
  C  C3  8  0.08931074  -0.00979811  0.78546715  1
  C  C4  8  0.10640226  0.10554724  0.60284928  1
  N  N5  8  -0.08792506  0.01833395  0.78999875  1
  N  N6  8  0.01440095  0.10984237  0.62026616  1
  N  N7  8  0.15463209  0.03466113  0.69910162  1
  N  N8  8  0.15512114  0.16331617  0.49201152  1
  O  O9  8  -0.15727574  0.06999028  0.73117220  1
  O  O10  8  -0.09267652  -0.04996575  0.89236654  1
  O  O11  8  0.10687525  0.21433593  0.40416854  1
  O  O12  8  0.24257030  0.15554430  0.49375983  1
