###############################################################################################
#
# CIF file generated by modified CIFWriter class 
# in pymatgen (v2025.03.10) https://pymatgen.org/
#
###############################################################################################
data_PBE+MBD_tight_b669c5c3b6eccba
_symmetry_space_group_name_H-M   P-42_1c
_cell_length_a   13.73824261
_cell_length_b   13.73824261
_cell_length_c   7.23747833
_cell_angle_alpha   90.00000000
_cell_angle_beta   90.00000000
_cell_angle_gamma   90.00000000
_symmetry_Int_Tables_number   114
_chemical_formula_moiety   'C3 H2 N4 O4'
_chemical_formula_sum   'H16 C24 N32 O32'
_cell_volume   1365.99666644
_cell_formula_units_Z   8
loop_
 _symmetry_equiv_pos_site_id
 _symmetry_equiv_pos_as_xyz
  1  'x, y, z'
  2  'y, -x, -z'
  3  '-x, -y, z'
  4  '-y, x, -z'
  5  'x+1/2, -y+1/2, -z+1/2'
  6  'y+1/2, x+1/2, z+1/2'
  7  '-x+1/2, y+1/2, -z+1/2'
  8  '-y+1/2, -x+1/2, z+1/2'
loop_
 _atom_site_type_symbol
 _atom_site_label
 _atom_site_symmetry_multiplicity
 _atom_site_fract_x
 _atom_site_fract_y
 _atom_site_fract_z
 _atom_site_occupancy
  H  H0  8  -0.17773280  0.75216503  0.84081358  1
  H  H1  8  -0.11383863  0.69529766  0.52682064  1
  C  C2  8  -0.06920905  0.72071052  0.63941024  1
  C  C3  8  -0.02764700  0.77988738  0.90745538  1
  C  C4  8  0.03033895  0.73702150  0.65355806  1
  N  N5  8  -0.10552821  0.74798665  0.80558943  1
  N  N6  8  -0.03634613  0.80449485  1.10073230  1
  N  N7  8  0.05552405  0.77481876  0.81968732  1
  N  N8  8  0.10082249  0.71481303  0.51253013  1
  O  O9  8  -0.10496610  0.76648857  1.18358379  1
  O  O10  8  0.02551381  0.85840425  1.16828778  1
  O  O11  8  0.07097469  0.66847214  0.37748426  1
  O  O12  8  0.18521997  0.74348873  0.53307898  1
