###############################################################################################
#
# CIF file generated by modified CIFWriter class 
# in pymatgen (v2025.03.10) https://pymatgen.org/
#
###############################################################################################
data_PBE+MBD_tight_b6fa7e46ebaef52
_symmetry_space_group_name_H-M   P-42_1c
_cell_length_a   16.61718003
_cell_length_b   16.61718003
_cell_length_c   5.38116456
_cell_angle_alpha   90.00000000
_cell_angle_beta   90.00000000
_cell_angle_gamma   90.00000000
_symmetry_Int_Tables_number   114
_chemical_formula_moiety   'C3 H2 N4 O4'
_chemical_formula_sum   'H16 C24 N32 O32'
_cell_volume   1485.90458663
_cell_formula_units_Z   8
loop_
 _symmetry_equiv_pos_site_id
 _symmetry_equiv_pos_as_xyz
  1  'x, y, z'
  2  'y, -x, -z'
  3  '-x, -y, z'
  4  '-y, x, -z'
  5  'x+1/2, -y+1/2, -z+1/2'
  6  'y+1/2, x+1/2, z+1/2'
  7  '-x+1/2, y+1/2, -z+1/2'
  8  '-y+1/2, -x+1/2, z+1/2'
loop_
 _atom_site_type_symbol
 _atom_site_label
 _atom_site_symmetry_multiplicity
 _atom_site_fract_x
 _atom_site_fract_y
 _atom_site_fract_z
 _atom_site_occupancy
  H  H0  8  0.05049691  0.30086615  1.10402976  1
  H  H1  8  0.14826986  0.18426409  1.16307878  1
  C  C2  8  0.07246015  0.28658472  0.71126633  1
  C  C3  8  0.13038774  0.20870172  0.98443834  1
  C  C4  8  0.15148296  0.18919833  0.74156144  1
  N  N5  8  0.02123733  0.34971021  0.61556191  1
  N  N6  8  0.07925439  0.27155982  0.95991070  1
  N  N7  8  0.11581471  0.23800008  0.57239012  1
  N  N8  8  0.12334518  0.79747310  0.33163133  1
  O  O9  8  -0.02217457  0.38383712  0.76593157  1
  O  O10  8  0.02578968  0.36456312  0.39056097  1
  O  O11  8  0.07973987  0.77208421  0.16328096  1
  O  O12  8  0.11398764  0.78334828  0.55544432  1
