###############################################################################################
#
# CIF file generated by modified CIFWriter class 
# in pymatgen (v2025.03.10) https://pymatgen.org/
#
###############################################################################################
data_PBE+MBD_tight_b97206a4e05dcb7
_symmetry_space_group_name_H-M   P4_32_12
_cell_length_a   9.08749952
_cell_length_b   9.08749952
_cell_length_c   15.19200642
_cell_angle_alpha   90.00000000
_cell_angle_beta   90.00000000
_cell_angle_gamma   90.00000000
_symmetry_Int_Tables_number   96
_chemical_formula_moiety   'C3 H2 N4 O4'
_chemical_formula_sum   'H16 C24 N32 O32'
_cell_volume   1254.59611229
_cell_formula_units_Z   8
loop_
 _symmetry_equiv_pos_site_id
 _symmetry_equiv_pos_as_xyz
  1  'x, y, z'
  2  '-y+1/2, x+1/2, z+3/4'
  3  '-x, -y, z+1/2'
  4  'y+1/2, -x+1/2, z+1/4'
  5  'x+1/2, -y+1/2, -z+1/4'
  6  '-y, -x, -z+1/2'
  7  '-x+1/2, y+1/2, -z+3/4'
  8  'y, x, -z'
loop_
 _atom_site_type_symbol
 _atom_site_label
 _atom_site_symmetry_multiplicity
 _atom_site_fract_x
 _atom_site_fract_y
 _atom_site_fract_z
 _atom_site_occupancy
  H  H0  8  -0.05127948  0.17339155  0.82758551  1
  H  H1  8  0.21861555  0.25005677  0.85938879  1
  C  C2  8  0.02937871  -0.04334031  0.88296101  1
  C  C3  8  0.03179395  0.10301445  0.85654588  1
  C  C4  8  0.03310126  0.24213348  0.08906376  1
  N  N5  8  -0.09749978  -0.13980784  0.88218513  1
  N  N6  8  -0.08710272  0.16157403  0.08408775  1
  N  N7  8  0.04275039  0.39000484  0.05455722  1
  N  N8  8  0.15030254  0.16971825  0.12357190  1
  O  O9  8  -0.09975484  -0.20278448  0.16335334  1
  O  O10  8  -0.09197354  -0.25228219  0.92699163  1
  O  O11  8  0.03433608  0.43116094  0.80692448  1
  O  O12  8  0.07405202  0.66284256  0.77300194  1
