###############################################################################################
#
# CIF file generated by modified CIFWriter class 
# in pymatgen (v2025.03.10) https://pymatgen.org/
#
###############################################################################################
data_PBE+MBD_tight_be0072be0ea9fc1
_symmetry_space_group_name_H-M   P4_22_12
_cell_length_a   11.31741303
_cell_length_b   11.31741303
_cell_length_c   10.69598010
_cell_angle_alpha   90.00000000
_cell_angle_beta   90.00000000
_cell_angle_gamma   90.00000000
_symmetry_Int_Tables_number   94
_chemical_formula_moiety   'C3 H2 N4 O4'
_chemical_formula_sum   'H16 C24 N32 O32'
_cell_volume   1369.98217969
_cell_formula_units_Z   8
loop_
 _symmetry_equiv_pos_site_id
 _symmetry_equiv_pos_as_xyz
  1  'x, y, z'
  2  '-y+1/2, x+1/2, z+1/2'
  3  '-x, -y, z'
  4  'y+1/2, -x+1/2, z+1/2'
  5  'x+1/2, -y+1/2, -z+1/2'
  6  '-y, -x, -z'
  7  '-x+1/2, y+1/2, -z+1/2'
  8  'y, x, -z'
loop_
 _atom_site_type_symbol
 _atom_site_label
 _atom_site_symmetry_multiplicity
 _atom_site_fract_x
 _atom_site_fract_y
 _atom_site_fract_z
 _atom_site_occupancy
  H  H0  8  0.02455001  0.80286389  0.81740925  1
  H  H1  8  0.21180415  0.76141695  0.68822859  1
  C  C2  8  0.09287107  0.67282842  0.94555188  1
  C  C3  8  0.13154137  0.25447741  0.34582557  1
  C  C4  8  0.18989184  0.71976735  0.77641350  1
  N  N5  8  -0.00075926  0.67305166  1.03699442  1
  N  N6  8  0.06445157  0.15357918  0.30669805  1
  N  N7  8  0.09074231  0.74440613  0.84213181  1
  N  N8  8  0.10316858  0.31454886  0.45087606  1
  O  O9  8  -0.09640783  0.71457607  1.00307059  1
  O  O10  8  -0.02712065  0.12978498  0.36262741  1
  O  O11  8  0.02224398  0.63173708  1.14075018  1
  O  O12  8  0.10018948  0.10229507  0.78696489  1
