###############################################################################################
#
# CIF file generated by modified CIFWriter class 
# in pymatgen (v2025.03.10) https://pymatgen.org/
#
###############################################################################################
data_PBE+MBD_tight_bfb85a58188eed8
_symmetry_space_group_name_H-M   P4_12_12
_cell_length_a   9.58029136
_cell_length_b   9.58029136
_cell_length_c   15.23149900
_cell_angle_alpha   90.00000000
_cell_angle_beta   90.00000000
_cell_angle_gamma   90.00000000
_symmetry_Int_Tables_number   92
_chemical_formula_moiety   'C3 H2 N4 O4'
_chemical_formula_sum   'H16 C24 N32 O32'
_cell_volume   1397.97717519
_cell_formula_units_Z   8
loop_
 _symmetry_equiv_pos_site_id
 _symmetry_equiv_pos_as_xyz
  1  'x, y, z'
  2  '-y+1/2, x+1/2, z+1/4'
  3  '-x, -y, z+1/2'
  4  'y+1/2, -x+1/2, z+3/4'
  5  'x+1/2, -y+1/2, -z+3/4'
  6  '-y, -x, -z+1/2'
  7  '-x+1/2, y+1/2, -z+1/4'
  8  'y, x, -z'
loop_
 _atom_site_type_symbol
 _atom_site_label
 _atom_site_symmetry_multiplicity
 _atom_site_fract_x
 _atom_site_fract_y
 _atom_site_fract_z
 _atom_site_occupancy
  H  H0  8  -0.01284613  0.29134087  0.08168460  1
  H  H1  8  0.01008338  0.08014138  0.18410487  1
  C  C2  8  0.05762278  0.18114779  0.19631130  1
  C  C3  8  0.10458885  0.62350384  0.42434502  1
  C  C4  8  0.14202103  0.23020975  0.26403232  1
  N  N5  8  -0.02941763  0.63778455  0.38236074  1
  N  N6  8  0.04750823  0.28921282  0.13971201  1
  N  N7  8  0.13629350  0.68242438  0.50000331  1
  N  N8  8  0.15451721  0.18581299  0.65894730  1
  O  O9  8  -0.11993917  0.70225265  0.42286980  1
  O  O10  8  -0.04204123  0.58567797  0.30857129  1
  O  O11  8  0.03763567  0.13322737  0.64792950  1
  O  O12  8  0.21006996  0.27150745  0.61001349  1
