###############################################################################################
#
# CIF file generated by modified CIFWriter class 
# in pymatgen (v2025.03.10) https://pymatgen.org/
#
###############################################################################################
data_PBE+MBD_tight_c7013b46c135dd
_symmetry_space_group_name_H-M   P4_32_12
_cell_length_a   9.18556276
_cell_length_b   9.18556276
_cell_length_c   14.85654313
_cell_angle_alpha   90.00000000
_cell_angle_beta   90.00000000
_cell_angle_gamma   90.00000000
_symmetry_Int_Tables_number   96
_chemical_formula_moiety   'C3 H2 N4 O4'
_chemical_formula_sum   'H16 C24 N32 O32'
_cell_volume   1253.51433645
_cell_formula_units_Z   8
loop_
 _symmetry_equiv_pos_site_id
 _symmetry_equiv_pos_as_xyz
  1  'x, y, z'
  2  '-y+1/2, x+1/2, z+3/4'
  3  '-x, -y, z+1/2'
  4  'y+1/2, -x+1/2, z+1/4'
  5  'x+1/2, -y+1/2, -z+1/4'
  6  '-y, -x, -z+1/2'
  7  '-x+1/2, y+1/2, -z+3/4'
  8  'y, x, -z'
loop_
 _atom_site_type_symbol
 _atom_site_label
 _atom_site_symmetry_multiplicity
 _atom_site_fract_x
 _atom_site_fract_y
 _atom_site_fract_z
 _atom_site_occupancy
  H  H0  8  0.01560990  0.09971248  0.92318102  1
  H  H1  8  0.06766998  -0.21556524  0.17257444  1
  C  C2  8  -0.11370592  0.28773008  0.97983336  1
  C  C3  8  -0.08035788  0.16799178  0.92652860  1
  C  C4  8  0.20727096  1.24015407  0.35543996  1
  N  N5  8  -0.15391630  0.74470368  0.20904571  1
  N  N6  8  -0.02221195  0.34564913  1.04997328  1
  N  N7  8  0.07047760  1.22199872  0.40070034  1
  N  N8  8  0.15217419  -0.19705764  0.12822060  1
  O  O9  8  -0.04091736  0.56060687  0.33718136  1
  O  O10  8  -0.01582092  1.13294481  0.36909210  1
  O  O11  8  0.05126046  1.29664367  0.46897915  1
  O  O12  8  0.08903056  0.27584409  1.06796493  1
