###############################################################################################
#
# CIF file generated by modified CIFWriter class 
# in pymatgen (v2025.03.10) https://pymatgen.org/
#
###############################################################################################
data_PBE+MBD_tight_c81ba155b4e2d2b
_symmetry_space_group_name_H-M   P-4n2
_cell_length_a   9.31375949
_cell_length_b   9.31375949
_cell_length_c   16.24899546
_cell_angle_alpha   90.00000000
_cell_angle_beta   90.00000000
_cell_angle_gamma   90.00000000
_symmetry_Int_Tables_number   118
_chemical_formula_moiety   'C3 H2 N4 O4'
_chemical_formula_sum   'H16 C24 N32 O32'
_cell_volume   1409.53724344
_cell_formula_units_Z   8
loop_
 _symmetry_equiv_pos_site_id
 _symmetry_equiv_pos_as_xyz
  1  'x, y, z'
  2  'y, -x, -z'
  3  '-x, -y, z'
  4  '-y, x, -z'
  5  '-x+1/2, y+1/2, z+1/2'
  6  '-y+1/2, -x+1/2, -z+1/2'
  7  'x+1/2, -y+1/2, z+1/2'
  8  'y+1/2, x+1/2, -z+1/2'
loop_
 _atom_site_type_symbol
 _atom_site_label
 _atom_site_symmetry_multiplicity
 _atom_site_fract_x
 _atom_site_fract_y
 _atom_site_fract_z
 _atom_site_occupancy
  H  H0  8  0.04788821  0.35343170  1.00778564  1
  H  H1  8  0.08210028  0.33437533  0.63119851  1
  C  C2  8  0.15947334  0.29339125  0.58738356  1
  C  C3  8  0.17213261  0.75392189  0.41184484  1
  C  C4  8  0.21262299  0.77374925  -0.02453143  1
  N  N5  8  0.06972160  0.74467548  0.34526671  1
  N  N6  8  0.14228750  0.31078164  0.98547887  1
  N  N7  8  0.15241954  0.81319273  -0.10348488  1
  N  N8  8  0.15958557  0.67475960  0.48176167  1
  O  O9  8  -0.03564041  0.66624619  0.35492514  1
  O  O10  8  0.05908456  0.15990574  1.12202523  1
  O  O11  8  0.09604730  0.81752138  0.28393703  1
  O  O12  8  0.09731232  0.71633934  -0.14439156  1
