###############################################################################################
#
# CIF file generated by modified CIFWriter class 
# in pymatgen (v2025.03.10) https://pymatgen.org/
#
###############################################################################################
data_PBE+MBD_tight_ca0012f7a6d945f
_symmetry_space_group_name_H-M   P4_12_12
_cell_length_a   7.11837008
_cell_length_b   7.11837008
_cell_length_c   27.66202918
_cell_angle_alpha   90.00000000
_cell_angle_beta   90.00000000
_cell_angle_gamma   90.00000000
_symmetry_Int_Tables_number   92
_chemical_formula_moiety   'C3 H2 N4 O4'
_chemical_formula_sum   'H16 C24 N32 O32'
_cell_volume   1401.66800620
_cell_formula_units_Z   8
loop_
 _symmetry_equiv_pos_site_id
 _symmetry_equiv_pos_as_xyz
  1  'x, y, z'
  2  '-y+1/2, x+1/2, z+1/4'
  3  '-x, -y, z+1/2'
  4  'y+1/2, -x+1/2, z+3/4'
  5  'x+1/2, -y+1/2, -z+3/4'
  6  '-y, -x, -z+1/2'
  7  '-x+1/2, y+1/2, -z+1/4'
  8  'y, x, -z'
loop_
 _atom_site_type_symbol
 _atom_site_label
 _atom_site_symmetry_multiplicity
 _atom_site_fract_x
 _atom_site_fract_y
 _atom_site_fract_z
 _atom_site_occupancy
  H  H0  8  -0.01187097  0.33919238  0.71993441  1
  H  H1  8  0.18803591  0.19344023  0.91631287  1
  C  C2  8  0.05649387  0.62342295  0.90593773  1
  C  C3  8  0.07595063  0.39392247  0.85953452  1
  C  C4  8  0.14191263  0.33014677  0.90406194  1
  N  N5  8  -0.01897540  0.37127649  0.68333094  1
  N  N6  8  0.02059924  0.57579548  0.86099282  1
  N  N7  8  0.03368890  0.80898040  0.92595200  1
  N  N8  8  0.07091541  0.28712711  0.81561862  1
  O  O9  8  -0.03506921  0.93058515  0.89964279  1
  O  O10  8  -0.03452671  0.34692820  0.78304380  1
  O  O11  8  0.08755011  0.83143144  0.96795025  1
  O  O12  8  0.14461907  0.16762091  0.18700271  1
