###############################################################################################
#
# CIF file generated by modified CIFWriter class 
# in pymatgen (v2025.03.10) https://pymatgen.org/
#
###############################################################################################
data_PBE+MBD_tight_cb2e0b7f33c54a7
_symmetry_space_group_name_H-M   P4_2/n
_cell_length_a   15.29596872
_cell_length_b   15.29596872
_cell_length_c   5.82581401
_cell_angle_alpha   90.00000000
_cell_angle_beta   90.00000000
_cell_angle_gamma   90.00000000
_symmetry_Int_Tables_number   86
_chemical_formula_moiety   'C3 H2 N4 O4'
_chemical_formula_sum   'H16 C24 N32 O32'
_cell_volume   1363.04623973
_cell_formula_units_Z   8
loop_
 _symmetry_equiv_pos_site_id
 _symmetry_equiv_pos_as_xyz
  1  'x, y, z'
  2  '-y+1/2, x+1/2, z+1/2'
  3  '-x, -y, z'
  4  'y+1/2, -x+1/2, z+1/2'
  5  '-x+1/2, -y+1/2, -z+1/2'
  6  'y, -x, -z'
  7  'x+1/2, y+1/2, -z+1/2'
  8  '-y, x, -z'
loop_
 _atom_site_type_symbol
 _atom_site_label
 _atom_site_symmetry_multiplicity
 _atom_site_fract_x
 _atom_site_fract_y
 _atom_site_fract_z
 _atom_site_occupancy
  H  H0  8  0.00241662  0.63369770  0.50273024  1
  H  H1  8  0.02246882  0.79981694  0.50002411  1
  C  C2  8  0.06485144  0.66698836  0.50203365  1
  C  C3  8  0.13586425  0.34943950  1.00221220  1
  C  C4  8  0.16114047  0.77154258  0.50022153  1
  N  N5  8  0.04513071  0.32472183  1.00297097  1
  N  N6  8  0.07333787  0.75475128  0.50066783  1
  N  N7  8  0.14134723  0.19445110  0.50051992  1
  N  N8  8  0.20077958  0.28983812  1.00113243  1
  O  O9  8  -0.00861811  0.38546660  1.00522126  1
  O  O10  8  0.02654781  0.24635508  1.00128227  1
  O  O11  8  0.08111851  0.13940351  0.50048735  1
  O  O12  8  0.13101933  0.27417067  0.50095612  1
