###############################################################################################
#
# CIF file generated by modified CIFWriter class 
# in pymatgen (v2025.03.10) https://pymatgen.org/
#
###############################################################################################
data_PBE+MBD_tight_cb35a58343e52a5
_symmetry_space_group_name_H-M   P-4c2
_cell_length_a   8.14694064
_cell_length_b   8.14694064
_cell_length_c   21.39088495
_cell_angle_alpha   90.00000000
_cell_angle_beta   90.00000000
_cell_angle_gamma   90.00000000
_symmetry_Int_Tables_number   116
_chemical_formula_moiety   'C3 H2 N4 O4'
_chemical_formula_sum   'H16 C24 N32 O32'
_cell_volume   1419.76954307
_cell_formula_units_Z   8
loop_
 _symmetry_equiv_pos_site_id
 _symmetry_equiv_pos_as_xyz
  1  'x, y, z'
  2  'y, -x, -z'
  3  '-x, -y, z'
  4  '-y, x, -z'
  5  '-x, y, z+1/2'
  6  '-y, -x, -z+1/2'
  7  'x, -y, z+1/2'
  8  'y, x, -z+1/2'
loop_
 _atom_site_type_symbol
 _atom_site_label
 _atom_site_symmetry_multiplicity
 _atom_site_fract_x
 _atom_site_fract_y
 _atom_site_fract_z
 _atom_site_occupancy
  H  H0  8  0.18749626  0.28433271  -0.19572923  1
  H  H1  8  0.19107068  0.45353370  -0.09376000  1
  C  C2  8  0.08475295  0.27269779  0.63971347  1
  C  C3  8  0.20709393  0.26893154  0.55402253  1
  C  C4  8  0.22458573  0.32507276  -0.09818550  1
  N  N5  8  -0.03274063  0.30348546  0.68823634  1
  N  N6  8  0.05917732  0.29811909  0.57975508  1
  N  N7  8  0.22740575  0.24313528  -0.15308865  1
  N  N8  8  0.23619838  0.29027109  0.48792118  1
  O  O9  8  -0.17078664  0.34849566  0.67350085  1
  O  O10  8  0.01581757  0.28480096  0.74326285  1
  O  O11  8  0.11584390  0.30966570  0.45355003  1
  O  O12  8  0.29091692  0.37994032  0.02923714  1
