###############################################################################################
#
# CIF file generated by modified CIFWriter class 
# in pymatgen (v2025.03.10) https://pymatgen.org/
#
###############################################################################################
data_PBE+MBD_tight_cbbf3892771ff81
_symmetry_space_group_name_H-M   P42_12
_cell_length_a   14.94359818
_cell_length_b   14.94359818
_cell_length_c   6.81520846
_cell_angle_alpha   90.00000000
_cell_angle_beta   90.00000000
_cell_angle_gamma   90.00000000
_symmetry_Int_Tables_number   90
_chemical_formula_moiety   'C3 H2 N4 O4'
_chemical_formula_sum   'H16 C24 N32 O32'
_cell_volume   1521.91187981
_cell_formula_units_Z   8
loop_
 _symmetry_equiv_pos_site_id
 _symmetry_equiv_pos_as_xyz
  1  'x, y, z'
  2  '-y+1/2, x+1/2, z'
  3  '-x, -y, z'
  4  'y+1/2, -x+1/2, z'
  5  'x+1/2, -y+1/2, -z'
  6  '-y, -x, -z'
  7  '-x+1/2, y+1/2, -z'
  8  'y, x, -z'
loop_
 _atom_site_type_symbol
 _atom_site_label
 _atom_site_symmetry_multiplicity
 _atom_site_fract_x
 _atom_site_fract_y
 _atom_site_fract_z
 _atom_site_occupancy
  H  H0  8  0.12054736  0.74911910  0.23104205  1
  H  H1  8  0.18362625  0.68559847  0.55554660  1
  C  C2  8  0.07970457  0.26413922  0.37914485  1
  C  C3  8  0.12083349  0.31948268  0.11275860  1
  C  C4  8  0.15972482  0.68852937  0.24499826  1
  N  N5  8  0.03583704  0.20876993  0.52436592  1
  N  N6  8  0.05279594  0.27322325  0.19653067  1
  N  N7  8  0.11986732  0.34217873  -0.09219519  1
  N  N8  8  0.16017101  0.30444749  0.41671165  1
  O  O9  8  -0.04288597  0.18874406  0.49663798  1
  O  O10  8  0.04759752  0.35561576  -0.17211123  1
  O  O11  8  0.08228685  0.18468540  0.66471995  1
  O  O12  8  0.15456887  0.69412020  -0.17544265  1
