###############################################################################################
#
# CIF file generated by modified CIFWriter class 
# in pymatgen (v2025.03.10) https://pymatgen.org/
#
###############################################################################################
data_PBE+MBD_tight_cc0d66f3d060c56
_symmetry_space_group_name_H-M   Iba2
_cell_length_a   29.41395877
_cell_length_b   5.34543356
_cell_length_c   8.09698647
_cell_angle_alpha   90.00000000
_cell_angle_beta   90.00000000
_cell_angle_gamma   90.00000000
_symmetry_Int_Tables_number   45
_chemical_formula_moiety   'C3 H2 N4 O4'
_chemical_formula_sum   'H16 C24 N32 O32'
_cell_volume   1273.09211633
_cell_formula_units_Z   8
loop_
 _symmetry_equiv_pos_site_id
 _symmetry_equiv_pos_as_xyz
  1  'x, y, z'
  2  '-x, -y, z'
  3  'x, -y, z+1/2'
  4  '-x, y, z+1/2'
  5  'x+1/2, y+1/2, z+1/2'
  6  '-x+1/2, -y+1/2, z+1/2'
  7  'x+1/2, -y+1/2, z'
  8  '-x+1/2, y+1/2, z'
loop_
 _atom_site_type_symbol
 _atom_site_label
 _atom_site_symmetry_multiplicity
 _atom_site_fract_x
 _atom_site_fract_y
 _atom_site_fract_z
 _atom_site_occupancy
  H  H0  8  0.09347218  0.36498633  1.17909315  1
  H  H1  8  0.16094335  0.40872232  0.98265040  1
  C  C2  8  0.09721345  0.21161015  0.67563318  1
  C  C3  8  0.10819578  0.45866097  0.63932504  1
  C  C4  8  0.15160429  0.19208969  0.50983682  1
  N  N5  8  0.06256365  0.13181197  0.79086657  1
  N  N6  8  0.12407005  0.04678351  0.59509314  1
  N  N7  8  0.14338470  0.44162704  0.53225090  1
  N  N8  8  0.18576744  0.10131030  0.39860884  1
  O  O9  8  0.04395691  0.29739551  0.87176366  1
  O  O10  8  0.05504978  -0.09476578  0.80254766  1
  O  O11  8  0.19147087  -0.12840545  0.38913962  1
  O  O12  8  0.20653966  0.25860083  0.31711901  1
