###############################################################################################
#
# CIF file generated by modified CIFWriter class 
# in pymatgen (v2025.03.10) https://pymatgen.org/
#
###############################################################################################
data_PBE+MBD_tight_cfea460fa0657ff
_symmetry_space_group_name_H-M   Pnna
_cell_length_a   9.64537344
_cell_length_b   15.72613708
_cell_length_c   8.85243112
_cell_angle_alpha   90.00000000
_cell_angle_beta   90.00000000
_cell_angle_gamma   90.00000000
_symmetry_Int_Tables_number   52
_chemical_formula_moiety   'C3 H2 N4 O4'
_chemical_formula_sum   'H16 C24 N32 O32'
_cell_volume   1342.77627751
_cell_formula_units_Z   8
loop_
 _symmetry_equiv_pos_site_id
 _symmetry_equiv_pos_as_xyz
  1  'x, y, z'
  2  '-x, -y, -z'
  3  '-x+1/2, -y, z'
  4  'x+1/2, y, -z'
  5  'x, -y+1/2, -z+1/2'
  6  '-x, y+1/2, z+1/2'
  7  '-x+1/2, y+1/2, -z+1/2'
  8  'x+1/2, -y+1/2, z+1/2'
loop_
 _atom_site_type_symbol
 _atom_site_label
 _atom_site_symmetry_multiplicity
 _atom_site_fract_x
 _atom_site_fract_y
 _atom_site_fract_z
 _atom_site_occupancy
  H  H0  8  0.09891739  0.71404506  0.95580150  1
  H  H1  8  0.17719182  0.59485810  0.77906227  1
  C  C2  8  0.11114387  0.13110479  0.63087363  1
  C  C3  8  0.18317600  0.23488084  0.50406306  1
  C  C4  8  0.24673871  0.63513560  0.84372258  1
  N  N5  8  0.01981824  0.06461339  0.68371872  1
  N  N6  8  0.06802479  0.19337378  0.53580766  1
  N  N7  8  0.19091905  0.19294091  1.09620970  1
  N  N8  8  0.20292613  0.70228231  0.92662920  1
  O  O9  8  -0.09151867  0.05510447  0.61846220  1
  O  O10  8  0.06406826  0.47932281  0.71101550  1
  O  O11  8  0.08206178  0.16831848  1.15397711  1
  O  O12  8  0.19221273  0.66311814  0.38289062  1
