###############################################################################################
#
# CIF file generated by modified CIFWriter class 
# in pymatgen (v2025.03.10) https://pymatgen.org/
#
###############################################################################################
data_PBE+MBD_tight_d0e818ecd8187de
_symmetry_space_group_name_H-M   C2/c
_cell_length_a   11.99607208
_cell_length_b   12.73844898
_cell_length_c   8.20429527
_cell_angle_alpha   90.00000000
_cell_angle_beta   82.73942488
_cell_angle_gamma   90.00000000
_symmetry_Int_Tables_number   15
_chemical_formula_moiety   'C3 H2 N4 O4'
_chemical_formula_sum   'H16 C24 N32 O32'
_cell_volume   1243.65675871
_cell_formula_units_Z   8
loop_
 _symmetry_equiv_pos_site_id
 _symmetry_equiv_pos_as_xyz
  1  'x, y, z'
  2  '-x, -y, -z'
  3  '-x, y, -z+1/2'
  4  'x, -y, z+1/2'
  5  'x+1/2, y+1/2, z'
  6  '-x+1/2, -y+1/2, -z'
  7  '-x+1/2, y+1/2, -z+1/2'
  8  'x+1/2, -y+1/2, z+1/2'
loop_
 _atom_site_type_symbol
 _atom_site_label
 _atom_site_symmetry_multiplicity
 _atom_site_fract_x
 _atom_site_fract_y
 _atom_site_fract_z
 _atom_site_occupancy
  H  H0  8  0.17461152  0.85912336  0.19532343  1
  H  H1  8  0.20938140  0.78599848  0.68362713  1
  C  C2  8  0.09380086  0.26958026  0.58364085  1
  C  C3  8  0.18478901  0.39140380  0.67315011  1
  C  C4  8  0.22580650  0.29983686  0.73763902  1
  N  N5  8  0.01563419  0.20768517  0.50291936  1
  N  N6  8  0.10285994  0.37228717  0.57775909  1
  N  N7  8  0.16588338  0.22194127  0.67757514  1
  N  N8  8  0.22305736  0.50361461  0.19763262  1
  O  O9  8  -0.05178913  0.74474467  -0.07079648  1
  O  O10  8  0.02294283  0.11155204  0.51754530  1
  O  O11  8  0.18174640  0.56926390  0.62874572  1
  O  O12  8  0.20172636  1.00611918  0.71085120  1
