###############################################################################################
#
# CIF file generated by modified CIFWriter class 
# in pymatgen (v2025.03.10) https://pymatgen.org/
#
###############################################################################################
data_PBE+MBD_tight_d186bed8564a99c
_symmetry_space_group_name_H-M   C2/c
_cell_length_a   12.45293874
_cell_length_b   10.14756604
_cell_length_c   10.65006841
_cell_angle_alpha   90.00000000
_cell_angle_beta   97.13296983
_cell_angle_gamma   90.00000000
_symmetry_Int_Tables_number   15
_chemical_formula_moiety   'C3 H2 N4 O4'
_chemical_formula_sum   'H16 C24 N32 O32'
_cell_volume   1335.40163750
_cell_formula_units_Z   8
loop_
 _symmetry_equiv_pos_site_id
 _symmetry_equiv_pos_as_xyz
  1  'x, y, z'
  2  '-x, -y, -z'
  3  '-x, y, -z+1/2'
  4  'x, -y, z+1/2'
  5  'x+1/2, y+1/2, z'
  6  '-x+1/2, -y+1/2, -z'
  7  '-x+1/2, y+1/2, -z+1/2'
  8  'x+1/2, -y+1/2, z+1/2'
loop_
 _atom_site_type_symbol
 _atom_site_label
 _atom_site_symmetry_multiplicity
 _atom_site_fract_x
 _atom_site_fract_y
 _atom_site_fract_z
 _atom_site_occupancy
  H  H0  8  0.13644944  0.12670171  0.82916551  1
  H  H1  8  0.13658310  -0.12445045  0.83370261  1
  C  C2  8  0.13188414  0.89273750  0.12638224  1
  C  C3  8  0.13218515  -0.09838403  0.62111729  1
  C  C4  8  0.13513676  -0.06555138  0.74852798  1
  N  N5  8  0.12992484  0.99097985  0.04551017  1
  N  N6  8  0.13187731  0.75503783  0.09228149  1
  N  N7  8  0.13288502  -0.22975698  0.57175989  1
  N  N8  8  0.13470171  0.06743574  0.74947048  1
  O  O9  8  0.12522126  -0.24456141  0.45476000  1
  O  O10  8  0.12523304  0.27216315  0.47857712  1
  O  O11  8  0.13893445  0.32446334  0.68020379  1
  O  O12  8  0.14142246  -0.32072968  0.64823875  1
