###############################################################################################
#
# CIF file generated by modified CIFWriter class 
# in pymatgen (v2025.03.10) https://pymatgen.org/
#
###############################################################################################
data_PBE+MBD_tight_d54598489836968
_symmetry_space_group_name_H-M   P-42_1c
_cell_length_a   10.27661966
_cell_length_b   10.27661966
_cell_length_c   11.79248171
_cell_angle_alpha   90.00000000
_cell_angle_beta   90.00000000
_cell_angle_gamma   90.00000000
_symmetry_Int_Tables_number   114
_chemical_formula_moiety   'C3 H2 N4 O4'
_chemical_formula_sum   'H16 C24 N32 O32'
_cell_volume   1245.39115818
_cell_formula_units_Z   8
loop_
 _symmetry_equiv_pos_site_id
 _symmetry_equiv_pos_as_xyz
  1  'x, y, z'
  2  'y, -x, -z'
  3  '-x, -y, z'
  4  '-y, x, -z'
  5  'x+1/2, -y+1/2, -z+1/2'
  6  'y+1/2, x+1/2, z+1/2'
  7  '-x+1/2, y+1/2, -z+1/2'
  8  '-y+1/2, -x+1/2, z+1/2'
loop_
 _atom_site_type_symbol
 _atom_site_label
 _atom_site_symmetry_multiplicity
 _atom_site_fract_x
 _atom_site_fract_y
 _atom_site_fract_z
 _atom_site_occupancy
  H  H0  8  -0.08327851  0.35578655  0.27472226  1
  H  H1  8  -0.01153643  0.22156699  0.10178356  1
  C  C2  8  0.02732763  0.21167643  0.18678719  1
  C  C3  8  0.06019390  0.24587445  0.36738131  1
  C  C4  8  0.12771881  0.13559847  0.23086741  1
  N  N5  8  -0.01461867  0.28178660  0.27646140  1
  N  N6  8  0.03946629  0.29938006  0.47955986  1
  N  N7  8  0.04339966  0.79508003  0.83044621  1
  N  N8  8  0.14832898  0.15804012  0.34273935  1
  O  O9  8  -0.05485448  0.37238602  0.49050136  1
  O  O10  8  0.00121743  0.83865569  0.92040178  1
  O  O11  8  0.01017737  0.68883075  0.78878024  1
  O  O12  8  0.11707108  0.26801367  0.55402317  1
