###############################################################################################
#
# CIF file generated by modified CIFWriter class 
# in pymatgen (v2025.03.10) https://pymatgen.org/
#
###############################################################################################
data_PBE+MBD_tight_d680833fc75278c
_symmetry_space_group_name_H-M   P-4b2
_cell_length_a   10.60569115
_cell_length_b   10.60569115
_cell_length_c   11.26020771
_cell_angle_alpha   90.00000000
_cell_angle_beta   90.00000000
_cell_angle_gamma   90.00000000
_symmetry_Int_Tables_number   117
_chemical_formula_moiety   'C3 H2 N4 O4'
_chemical_formula_sum   'H16 C24 N32 O32'
_cell_volume   1266.55587429
_cell_formula_units_Z   8
loop_
 _symmetry_equiv_pos_site_id
 _symmetry_equiv_pos_as_xyz
  1  'x, y, z'
  2  'y, -x, -z'
  3  '-x, -y, z'
  4  '-y, x, -z'
  5  '-x+1/2, y+1/2, z'
  6  '-y+1/2, -x+1/2, -z'
  7  'x+1/2, -y+1/2, z'
  8  'y+1/2, x+1/2, -z'
loop_
 _atom_site_type_symbol
 _atom_site_label
 _atom_site_symmetry_multiplicity
 _atom_site_fract_x
 _atom_site_fract_y
 _atom_site_fract_z
 _atom_site_occupancy
  H  H0  8  -0.02985853  0.66851998  0.17317608  1
  H  H1  8  -0.02032610  0.86275728  0.30608343  1
  C  C2  8  0.05585349  0.70909533  0.20885005  1
  C  C3  8  0.16437777  0.18039268  0.69289322  1
  C  C4  8  0.17668769  0.68270689  0.80261628  1
  N  N5  8  0.05699867  0.81169353  0.27988857  1
  N  N6  8  0.05710517  0.22000213  0.62385043  1
  N  N7  8  0.07173194  0.73356287  0.86851490  1
  N  N8  8  0.24065607  0.25510763  0.25854376  1
  O  O9  8  -0.01957906  0.13694029  0.59501994  1
  O  O10  8  0.00060859  0.65720096  0.91718383  1
  O  O11  8  0.04774461  0.33256000  0.60027380  1
  O  O12  8  0.05886221  0.84934315  0.87071751  1
