###############################################################################################
#
# CIF file generated by modified CIFWriter class 
# in pymatgen (v2025.03.10) https://pymatgen.org/
#
###############################################################################################
data_PBE+MBD_tight_d7743378a00ee9c
_symmetry_space_group_name_H-M   Pbca
_cell_length_a   6.41819927
_cell_length_b   9.95948948
_cell_length_c   18.86586210
_cell_angle_alpha   90.00000000
_cell_angle_beta   90.00000000
_cell_angle_gamma   90.00000000
_symmetry_Int_Tables_number   61
_chemical_formula_moiety   'C3 H2 N4 O4'
_chemical_formula_sum   'H16 C24 N32 O32'
_cell_volume   1205.94341311
_cell_formula_units_Z   8
loop_
 _symmetry_equiv_pos_site_id
 _symmetry_equiv_pos_as_xyz
  1  'x, y, z'
  2  '-x, -y, -z'
  3  '-x+1/2, -y, z+1/2'
  4  'x+1/2, y, -z+1/2'
  5  'x+1/2, -y+1/2, -z'
  6  '-x+1/2, y+1/2, z'
  7  '-x, y+1/2, -z+1/2'
  8  'x, -y+1/2, z+1/2'
loop_
 _atom_site_type_symbol
 _atom_site_label
 _atom_site_symmetry_multiplicity
 _atom_site_fract_x
 _atom_site_fract_y
 _atom_site_fract_z
 _atom_site_occupancy
  H  H0  8  -0.07945663  0.47276942  0.07925963  1
  H  H1  8  0.23507597  -0.08080741  0.13986434  1
  C  C2  8  0.02213092  0.68691898  0.09813750  1
  C  C3  8  0.02926583  0.54728611  0.09908294  1
  C  C4  8  0.20009073  0.13633629  0.15010603  1
  N  N5  8  -0.13768856  0.73240136  0.56677205  1
  N  N6  8  0.00573643  0.14404525  0.18791380  1
  N  N7  8  0.19075650  0.74194401  0.12994884  1
  N  N8  8  0.20892066  0.51744197  0.13258650  1
  O  O9  8  -0.11298447  0.60964012  0.56526489  1
  O  O10  8  -0.07094114  0.03662567  0.20759620  1
  O  O11  8  -0.06909279  0.24340816  0.69762938  1
  O  O12  8  0.20843128  0.70757912  0.45704971  1
