###############################################################################################
#
# CIF file generated by modified CIFWriter class 
# in pymatgen (v2025.03.10) https://pymatgen.org/
#
###############################################################################################
data_PBE+MBD_tight_d9edfa008989b93
_symmetry_space_group_name_H-M   Pbca
_cell_length_a   15.07081022
_cell_length_b   12.13119640
_cell_length_c   6.52748132
_cell_angle_alpha   90.00000000
_cell_angle_beta   90.00000000
_cell_angle_gamma   90.00000000
_symmetry_Int_Tables_number   61
_chemical_formula_moiety   'C3 H2 N4 O4'
_chemical_formula_sum   'H16 C24 N32 O32'
_cell_volume   1193.39955802
_cell_formula_units_Z   8
loop_
 _symmetry_equiv_pos_site_id
 _symmetry_equiv_pos_as_xyz
  1  'x, y, z'
  2  '-x, -y, -z'
  3  '-x, y+1/2, -z+1/2'
  4  'x, -y+1/2, z+1/2'
  5  '-x+1/2, -y, z+1/2'
  6  'x+1/2, y, -z+1/2'
  7  'x+1/2, -y+1/2, -z'
  8  '-x+1/2, y+1/2, z'
loop_
 _atom_site_type_symbol
 _atom_site_label
 _atom_site_symmetry_multiplicity
 _atom_site_fract_x
 _atom_site_fract_y
 _atom_site_fract_z
 _atom_site_occupancy
  H  H0  8  -0.03502756  0.43168385  0.18359785  1
  H  H1  8  0.09482838  0.29697701  0.17276571  1
  C  C2  8  0.03301653  0.45235558  0.22291374  1
  C  C3  8  0.07205162  0.54729488  0.30346871  1
  C  C4  8  0.17463373  0.43295384  0.28080614  1
  N  N5  8  0.02618113  0.64723017  0.35229942  1
  N  N6  8  0.10070990  0.37974593  0.21004051  1
  N  N7  8  0.15995396  0.53461564  0.34008125  1
  N  N8  8  0.24018911  -0.12195055  0.28264961  1
  O  O9  8  -0.05368562  0.65233483  0.29882920  1
  O  O10  8  0.06533029  0.72041686  0.44487344  1
  O  O11  8  0.17643528  -0.06880874  0.34732758  1
  O  O12  8  0.23926059  -0.21718507  0.21822057  1
