###############################################################################################
#
# CIF file generated by modified CIFWriter class 
# in pymatgen (v2025.03.10) https://pymatgen.org/
#
###############################################################################################
data_PBE+MBD_tight_dba966792ebb465
_symmetry_space_group_name_H-M   P422
_cell_length_a   11.97753606
_cell_length_b   11.97753606
_cell_length_c   9.96347787
_cell_angle_alpha   90.00000000
_cell_angle_beta   90.00000000
_cell_angle_gamma   90.00000000
_symmetry_Int_Tables_number   89
_chemical_formula_moiety   'C3 H2 N4 O4'
_chemical_formula_sum   'H16 C24 N32 O32'
_cell_volume   1429.37418484
_cell_formula_units_Z   8
loop_
 _symmetry_equiv_pos_site_id
 _symmetry_equiv_pos_as_xyz
  1  'x, y, z'
  2  '-y, x, z'
  3  '-x, -y, z'
  4  'y, -x, z'
  5  'x, -y, -z'
  6  '-y, -x, -z'
  7  '-x, y, -z'
  8  'y, x, -z'
loop_
 _atom_site_type_symbol
 _atom_site_label
 _atom_site_symmetry_multiplicity
 _atom_site_fract_x
 _atom_site_fract_y
 _atom_site_fract_z
 _atom_site_occupancy
  H  H0  8  0.09425234  0.25563611  0.51487557  1
  H  H1  8  0.24676513  0.40478029  0.51323126  1
  C  C2  8  0.06003455  0.31120929  0.71702544  1
  C  C3  8  0.17950673  0.43766855  0.72323177  1
  C  C4  8  0.19029281  0.38947314  0.59650197  1
  N  N5  8  -0.02991023  0.23551984  0.74630315  1
  N  N6  8  0.09930797  0.38852156  0.79793725  1
  N  N7  8  0.11129020  0.30896405  0.59399573  1
  N  N8  8  0.24339201  0.53313102  0.76914186  1
  O  O9  8  -0.07184661  0.18706826  0.64564489  1
  O  O10  8  -0.05974867  0.22207210  0.86154369  1
  O  O11  8  0.22781391  0.43087655  0.11804875  1
  O  O12  8  0.30967813  0.42710707  0.31507467  1
