###############################################################################################
#
# CIF file generated by modified CIFWriter class 
# in pymatgen (v2025.03.10) https://pymatgen.org/
#
###############################################################################################
data_PBE+MBD_tight_e344165ae6f9591
_symmetry_space_group_name_H-M   P4_122
_cell_length_a   9.06291307
_cell_length_b   9.06291307
_cell_length_c   17.34198671
_cell_angle_alpha   90.00000000
_cell_angle_beta   90.00000000
_cell_angle_gamma   90.00000000
_symmetry_Int_Tables_number   91
_chemical_formula_moiety   'C3 H2 N4 O4'
_chemical_formula_sum   'H16 C24 N32 O32'
_cell_volume   1424.40824183
_cell_formula_units_Z   8
loop_
 _symmetry_equiv_pos_site_id
 _symmetry_equiv_pos_as_xyz
  1  'x, y, z'
  2  '-y, x, z+1/4'
  3  '-x, -y, z+1/2'
  4  'y, -x, z+3/4'
  5  'x, -y, -z+1/2'
  6  '-y, -x, -z+1/4'
  7  '-x, y, -z'
  8  'y, x, -z+3/4'
loop_
 _atom_site_type_symbol
 _atom_site_label
 _atom_site_symmetry_multiplicity
 _atom_site_fract_x
 _atom_site_fract_y
 _atom_site_fract_z
 _atom_site_occupancy
  H  H0  8  -0.07988820  0.38849190  0.62484780  1
  H  H1  8  0.16612519  0.45739841  0.56135835  1
  C  C2  8  0.05250348  0.25903263  0.70386278  1
  C  C3  8  0.15398364  0.38646126  0.61132626  1
  C  C4  8  0.25663761  0.30767534  0.65505832  1
  N  N5  8  -0.06501555  0.19620379  0.74905453  1
  N  N6  8  0.02280326  0.35289574  0.64380649  1
  N  N7  8  0.19323918  0.22970118  0.71268731  1
  N  N8  8  0.29071764  0.40964111  0.11412947  1
  O  O9  8  -0.19141978  0.21730094  0.72394389  1
  O  O10  8  -0.03244396  0.12772780  0.80776225  1
  O  O11  8  0.20137100  0.48327557  0.07524524  1
  O  O12  8  0.36035271  0.45659816  0.16964171  1
