###############################################################################################
#
# CIF file generated by modified CIFWriter class 
# in pymatgen (v2025.03.10) https://pymatgen.org/
#
###############################################################################################
data_PBE+MBD_tight_e515f13be6a56fd
_symmetry_space_group_name_H-M   Pcca
_cell_length_a   19.04163416
_cell_length_b   9.18299198
_cell_length_c   7.65561008
_cell_angle_alpha   90.00000000
_cell_angle_beta   90.00000000
_cell_angle_gamma   90.00000000
_symmetry_Int_Tables_number   54
_chemical_formula_moiety   'C3 H2 N4 O4'
_chemical_formula_sum   'H16 C24 N32 O32'
_cell_volume   1338.65365380
_cell_formula_units_Z   8
loop_
 _symmetry_equiv_pos_site_id
 _symmetry_equiv_pos_as_xyz
  1  'x, y, z'
  2  '-x, -y, -z'
  3  '-x+1/2, -y, z'
  4  'x+1/2, y, -z'
  5  'x+1/2, -y, -z+1/2'
  6  '-x+1/2, y, z+1/2'
  7  '-x, y, -z+1/2'
  8  'x, -y, z+1/2'
loop_
 _atom_site_type_symbol
 _atom_site_label
 _atom_site_symmetry_multiplicity
 _atom_site_fract_x
 _atom_site_fract_y
 _atom_site_fract_z
 _atom_site_occupancy
  H  H0  8  0.24424773  0.20560567  0.42946633  1
  H  H1  8  0.24902473  0.35144670  0.14851091  1
  C  C2  8  0.13192815  0.30110670  0.14877574  1
  C  C3  8  0.13335586  0.19332660  0.38837904  1
  C  C4  8  0.20194203  0.30238197  0.20107851  1
  N  N5  8  0.08958171  0.23486028  0.26591249  1
  N  N6  8  0.10653131  0.36108071  -0.01433635  1
  N  N7  8  0.11605546  0.11708945  0.54810956  1
  N  N8  8  0.20163106  0.23079232  0.35521096  1
  O  O9  8  0.04372839  0.36655324  -0.04203825  1
  O  O10  8  0.05485435  0.09237946  0.58166879  1
  O  O11  8  0.15368963  0.40247428  -0.11727835  1
  O  O12  8  0.16796558  0.08366583  0.64052389  1
