###############################################################################################
#
# CIF file generated by modified CIFWriter class 
# in pymatgen (v2025.03.10) https://pymatgen.org/
#
###############################################################################################
data_PBE+MBD_tight_e667e3730b611cb
_symmetry_space_group_name_H-M   P4_322
_cell_length_a   5.27822357
_cell_length_b   5.27822357
_cell_length_c   48.00344165
_cell_angle_alpha   90.00000000
_cell_angle_beta   90.00000000
_cell_angle_gamma   90.00000000
_symmetry_Int_Tables_number   95
_chemical_formula_moiety   'C3 H2 N4 O4'
_chemical_formula_sum   'H16 C24 N32 O32'
_cell_volume   1337.35879765
_cell_formula_units_Z   8
loop_
 _symmetry_equiv_pos_site_id
 _symmetry_equiv_pos_as_xyz
  1  'x, y, z'
  2  '-y, x, z+3/4'
  3  '-x, -y, z+1/2'
  4  'y, -x, z+1/4'
  5  'x, -y, -z+1/2'
  6  '-y, -x, -z+3/4'
  7  '-x, y, -z'
  8  'y, x, -z+1/4'
loop_
 _atom_site_type_symbol
 _atom_site_label
 _atom_site_symmetry_multiplicity
 _atom_site_fract_x
 _atom_site_fract_y
 _atom_site_fract_z
 _atom_site_occupancy
  H  H0  8  -0.21000332  0.67170068  0.30170302  1
  H  H1  8  -0.04264711  -0.24927628  0.08537997  1
  C  C2  8  -0.03753165  0.17920041  0.08210680  1
  C  C3  8  0.03490110  -0.07171096  0.07790264  1
  C  C4  8  0.19508605  0.26846329  0.19539052  1
  N  N5  8  -0.25368263  0.26133319  0.09818939  1
  N  N6  8  -0.05713226  0.23230407  0.18991437  1
  N  N7  8  0.10685330  0.34386508  0.06755790  1
  N  N8  8  0.28466773  0.52907966  0.28723717  1
  O  O9  8  -0.31904102  0.48484843  0.09628869  1
  O  O10  8  0.09758022  -0.36343850  0.13791994  1
  O  O11  8  0.12281024  0.38390263  0.27775282  1
  O  O12  8  0.48444274  0.48897954  0.78315506  1
