###############################################################################################
#
# CIF file generated by modified CIFWriter class 
# in pymatgen (v2025.03.10) https://pymatgen.org/
#
###############################################################################################
data_PBE+MBD_tight_eddf6e0ca6cfc4d
_symmetry_space_group_name_H-M   C2/c
_cell_length_a   11.77609010
_cell_length_b   10.63446211
_cell_length_c   11.47382165
_cell_angle_alpha   90.00000000
_cell_angle_beta   60.71351340
_cell_angle_gamma   90.00000000
_symmetry_Int_Tables_number   15
_chemical_formula_moiety   'C3 H2 N4 O4'
_chemical_formula_sum   'H16 C24 N32 O32'
_cell_volume   1253.23695355
_cell_formula_units_Z   8
loop_
 _symmetry_equiv_pos_site_id
 _symmetry_equiv_pos_as_xyz
  1  'x, y, z'
  2  '-x, -y, -z'
  3  '-x, y, -z+1/2'
  4  'x, -y, z+1/2'
  5  'x+1/2, y+1/2, z'
  6  '-x+1/2, -y+1/2, -z'
  7  '-x+1/2, y+1/2, -z+1/2'
  8  'x+1/2, -y+1/2, z+1/2'
loop_
 _atom_site_type_symbol
 _atom_site_label
 _atom_site_symmetry_multiplicity
 _atom_site_fract_x
 _atom_site_fract_y
 _atom_site_fract_z
 _atom_site_occupancy
  H  H0  8  0.18225358  0.83331753  0.37581049  1
  H  H1  8  0.19053659  0.66294714  0.87788665  1
  C  C2  8  0.19390060  0.63057852  0.35714818  1
  C  C3  8  0.20148824  0.87539612  0.85101315  1
  C  C4  8  0.21977665  0.25208114  0.31809183  1
  N  N5  8  0.12519197  0.59750584  0.49640751  1
  N  N6  8  0.13386073  0.92452245  0.98388031  1
  N  N7  8  0.21264176  0.75346773  0.31629238  1
  N  N8  8  0.24482920  0.54946498  0.25795020  1
  O  O9  8  0.08468663  0.68547068  0.57678102  1
  O  O10  8  0.08789574  0.15162569  0.57646547  1
  O  O11  8  0.11186491  0.48467804  0.52578993  1
  O  O12  8  0.12460223  1.04072141  0.99960037  1
