###############################################################################################
#
# CIF file generated by modified CIFWriter class 
# in pymatgen (v2025.03.10) https://pymatgen.org/
#
###############################################################################################
data_PBE+MBD_tight_ef0001bb16db22a
_symmetry_space_group_name_H-M   P4_32_12
_cell_length_a   10.39539813
_cell_length_b   10.39539813
_cell_length_c   12.10718436
_cell_angle_alpha   90.00000000
_cell_angle_beta   90.00000000
_cell_angle_gamma   90.00000000
_symmetry_Int_Tables_number   96
_chemical_formula_moiety   'C3 H2 N4 O4'
_chemical_formula_sum   'H16 C24 N32 O32'
_cell_volume   1308.35443033
_cell_formula_units_Z   8
loop_
 _symmetry_equiv_pos_site_id
 _symmetry_equiv_pos_as_xyz
  1  'x, y, z'
  2  '-y+1/2, x+1/2, z+3/4'
  3  '-x, -y, z+1/2'
  4  'y+1/2, -x+1/2, z+1/4'
  5  'x+1/2, -y+1/2, -z+1/4'
  6  '-y, -x, -z+1/2'
  7  '-x+1/2, y+1/2, -z+3/4'
  8  'y, x, -z'
loop_
 _atom_site_type_symbol
 _atom_site_label
 _atom_site_symmetry_multiplicity
 _atom_site_fract_x
 _atom_site_fract_y
 _atom_site_fract_z
 _atom_site_occupancy
  H  H0  8  0.08770203  0.88049312  0.58463460  1
  H  H1  8  0.09140716  0.63439195  0.56338437  1
  C  C2  8  0.14866374  0.20755981  0.85406656  1
  C  C3  8  0.15209920  0.70236980  0.87386184  1
  C  C4  8  0.17204245  0.82016057  0.59427411  1
  N  N5  8  0.01368939  0.17535375  0.85126844  1
  N  N6  8  0.02697802  0.65437634  0.84493126  1
  N  N7  8  0.12800386  0.24123522  0.11709791  1
  N  N8  8  0.17094665  0.69097013  0.58105254  1
  O  O9  8  -0.06535108  0.72533180  0.86135425  1
  O  O10  8  -0.06092019  0.26351256  0.82874137  1
  O  O11  8  -0.01653878  0.06344111  0.87338371  1
  O  O12  8  0.01983302  0.54555943  0.80225909  1
