###############################################################################################
#
# CIF file generated by modified CIFWriter class 
# in pymatgen (v2025.03.10) https://pymatgen.org/
#
###############################################################################################
data_PBE+MBD_tight_f68cd0b8948f8fc
_symmetry_space_group_name_H-M   Ibam
_cell_length_a   19.61426674
_cell_length_b   10.75509964
_cell_length_c   6.50715884
_cell_angle_alpha   90.00000000
_cell_angle_beta   90.00000000
_cell_angle_gamma   90.00000000
_symmetry_Int_Tables_number   72
_chemical_formula_moiety   'C3 H2 N4 O4'
_chemical_formula_sum   'H16 C24 N32 O32'
_cell_volume   1372.70723738
_cell_formula_units_Z   8
loop_
 _symmetry_equiv_pos_site_id
 _symmetry_equiv_pos_as_xyz
  1  'x, y, z'
  2  '-x, -y, -z+1/2'
  3  '-x, -y, z'
  4  'x, y, -z+1/2'
  5  '-x, y, -z'
  6  'x, -y, z+1/2'
  7  'x, -y, -z'
  8  '-x, y, z+1/2'
  9  'x+1/2, y+1/2, z+1/2'
  10  '-x+1/2, -y+1/2, -z'
  11  '-x+1/2, -y+1/2, z+1/2'
  12  'x+1/2, y+1/2, -z'
  13  '-x+1/2, y+1/2, -z+1/2'
  14  'x+1/2, -y+1/2, z'
  15  'x+1/2, -y+1/2, -z+1/2'
  16  '-x+1/2, y+1/2, z'
loop_
 _atom_site_type_symbol
 _atom_site_label
 _atom_site_symmetry_multiplicity
 _atom_site_fract_x
 _atom_site_fract_y
 _atom_site_fract_z
 _atom_site_occupancy
  H  H0  8  0.23879402  0.28992267  0.74976677  1
  H  H1  8  0.23947603  0.44471569  0.25035318  1
  C  C2  8  0.13211700  0.24280857  0.75013744  1
  C  C3  8  0.14456605  0.05027852  0.75007310  1
  C  C4  8  0.21056065  0.09853158  0.74987532  1
  N  N5  8  0.09623843  0.14019957  0.75023092  1
  N  N6  8  0.10439340  0.36796146  0.75004049  1
  N  N7  8  0.12587840  -0.07955215  0.75008949  1
  N  N8  8  0.20113346  0.22322203  0.74989174  1
  O  O9  8  0.04289205  0.38059300  0.75039080  1
  O  O10  8  0.06602061  -0.10790980  0.75046733  1
  O  O11  8  0.14781712  0.45266987  0.74952575  1
  O  O12  8  0.17430725  -0.15634110  0.74972359  1
