###############################################################################################
#
# CIF file generated by modified CIFWriter class 
# in pymatgen (v2025.03.10) https://pymatgen.org/
#
###############################################################################################
data_PBE+MBD_tight_f8fe75b48d1f8e9
_symmetry_space_group_name_H-M   Pbcn
_cell_length_a   9.02304365
_cell_length_b   10.19230474
_cell_length_c   13.43222688
_cell_angle_alpha   90.00000000
_cell_angle_beta   90.00000000
_cell_angle_gamma   90.00000000
_symmetry_Int_Tables_number   60
_chemical_formula_moiety   'C3 H2 N4 O4'
_chemical_formula_sum   'H16 C24 N32 O32'
_cell_volume   1235.30294627
_cell_formula_units_Z   8
loop_
 _symmetry_equiv_pos_site_id
 _symmetry_equiv_pos_as_xyz
  1  'x, y, z'
  2  '-x, -y, -z'
  3  '-x+1/2, -y+1/2, z+1/2'
  4  'x+1/2, y+1/2, -z+1/2'
  5  'x+1/2, -y+1/2, -z'
  6  '-x+1/2, y+1/2, z'
  7  '-x, y, -z+1/2'
  8  'x, -y, z+1/2'
loop_
 _atom_site_type_symbol
 _atom_site_label
 _atom_site_symmetry_multiplicity
 _atom_site_fract_x
 _atom_site_fract_y
 _atom_site_fract_z
 _atom_site_occupancy
  H  H0  8  0.11412030  0.41676828  0.14645740  1
  H  H1  8  0.21451828  0.48288077  -0.02655682  1
  C  C2  8  0.16279893  0.13003213  0.05209504  1
  C  C3  8  0.18992929  0.49711786  0.13204199  1
  C  C4  8  0.24617661  0.09181124  0.19376376  1
  N  N5  8  0.07257439  0.17890579  -0.02810745  1
  N  N6  8  0.15577240  0.17446254  0.14366442  1
  N  N7  8  0.23627522  0.39743426  0.79934505  1
  N  N8  8  0.24627227  0.47660222  0.54107973  1
  O  O9  8  0.01359317  0.28686537  -0.01697846  1
  O  O10  8  0.05870303  0.10702315  -0.10170827  1
  O  O11  8  0.15482627  0.48055556  0.84021220  1
  O  O12  8  0.19726338  0.18966049  0.34402284  1
