###############################################################################################
#
# CIF file generated by modified CIFWriter class 
# in pymatgen (v2025.03.10) https://pymatgen.org/
#
###############################################################################################
data_PBE+MBD_tight_fa06c66d34b7cba
_symmetry_space_group_name_H-M   P4_32_12
_cell_length_a   8.93213151
_cell_length_b   8.93213151
_cell_length_c   16.36233054
_cell_angle_alpha   90.00000000
_cell_angle_beta   90.00000000
_cell_angle_gamma   90.00000000
_symmetry_Int_Tables_number   96
_chemical_formula_moiety   'C3 H2 N4 O4'
_chemical_formula_sum   'H16 C24 N32 O32'
_cell_volume   1305.43538116
_cell_formula_units_Z   8
loop_
 _symmetry_equiv_pos_site_id
 _symmetry_equiv_pos_as_xyz
  1  'x, y, z'
  2  '-y+1/2, x+1/2, z+3/4'
  3  '-x, -y, z+1/2'
  4  'y+1/2, -x+1/2, z+1/4'
  5  'x+1/2, -y+1/2, -z+1/4'
  6  '-y, -x, -z+1/2'
  7  '-x+1/2, y+1/2, -z+3/4'
  8  'y, x, -z'
loop_
 _atom_site_type_symbol
 _atom_site_label
 _atom_site_symmetry_multiplicity
 _atom_site_fract_x
 _atom_site_fract_y
 _atom_site_fract_z
 _atom_site_occupancy
  H  H0  8  0.05473565  0.28571023  0.73893132  1
  H  H1  8  0.17926363  0.73978828  -0.04552029  1
  C  C2  8  0.04276979  0.30991054  0.29234223  1
  C  C3  8  0.08297930  0.09108288  0.33031606  1
  C  C4  8  0.17012189  0.26429021  0.24940976  1
  N  N5  8  -0.05450364  0.07344683  0.63172373  1
  N  N6  8  -0.02346149  0.45532315  0.28901415  1
  N  N7  8  -0.01138190  0.20185933  0.34228375  1
  N  N8  8  0.12267117  0.19336385  0.72512045  1
  O  O9  8  -0.14559175  0.17156651  0.65221730  1
  O  O10  8  -0.02966134  -0.07799210  0.41599206  1
  O  O11  8  0.01785157  0.36338516  0.07875297  1
  O  O12  8  0.04271778  0.54900724  0.24477430  1
