###############################################################################################
#
# CIF file generated by modified CIFWriter class 
# in pymatgen (v2025.03.10) https://pymatgen.org/
#
###############################################################################################
data_PBE+MBD_tight_fabcc696c34e1ff
_symmetry_space_group_name_H-M   P4_32_12
_cell_length_a   6.93176799
_cell_length_b   6.93176799
_cell_length_c   27.61920412
_cell_angle_alpha   90.00000000
_cell_angle_beta   90.00000000
_cell_angle_gamma   90.00000000
_symmetry_Int_Tables_number   96
_chemical_formula_moiety   'C3 H2 N4 O4'
_chemical_formula_sum   'H16 C24 N32 O32'
_cell_volume   1327.08639118
_cell_formula_units_Z   8
loop_
 _symmetry_equiv_pos_site_id
 _symmetry_equiv_pos_as_xyz
  1  'x, y, z'
  2  '-y+1/2, x+1/2, z+3/4'
  3  '-x, -y, z+1/2'
  4  'y+1/2, -x+1/2, z+1/4'
  5  'x+1/2, -y+1/2, -z+1/4'
  6  '-y, -x, -z+1/2'
  7  '-x+1/2, y+1/2, -z+3/4'
  8  'y, x, -z'
loop_
 _atom_site_type_symbol
 _atom_site_label
 _atom_site_symmetry_multiplicity
 _atom_site_fract_x
 _atom_site_fract_y
 _atom_site_fract_z
 _atom_site_occupancy
  H  H0  8  -0.04683396  0.43230111  0.09843991  1
  H  H1  8  0.18438408  -0.22242883  0.84793662  1
  C  C2  8  -0.10173675  0.23204711  0.04026356  1
  C  C3  8  0.02618321  -0.25168280  0.91981368  1
  C  C4  8  0.17036732  -0.20243487  0.88670782  1
  N  N5  8  -0.10564860  0.30197456  0.08660067  1
  N  N6  8  0.01100269  0.32874681  0.00366462  1
  N  N7  8  0.06515545  -0.18832048  0.96498791  1
  N  N8  8  0.14490536  0.64876794  0.15891892  1
  O  O9  8  -0.01128120  0.28054201  -0.03896818  1
  O  O10  8  0.04947211  0.64962637  0.12041418  1
  O  O11  8  0.05042277  0.62775517  0.76862740  1
  O  O12  8  0.15531617  0.78493891  0.18684829  1
