###############################################################################################
#
# CIF file generated by modified CIFWriter class 
# in pymatgen (v2025.03.10) https://pymatgen.org/
#
###############################################################################################
data_PBE+MBD_tight_fc3ccf20333f98f
_symmetry_space_group_name_H-M   Cmc2_1
_cell_length_a   31.53904224
_cell_length_b   6.80801935
_cell_length_c   7.53512431
_cell_angle_alpha   90.00000000
_cell_angle_beta   90.00000000
_cell_angle_gamma   90.00000000
_symmetry_Int_Tables_number   36
_chemical_formula_moiety   'C3 H2 N4 O4'
_chemical_formula_sum   'H16 C24 N32 O32'
_cell_volume   1617.92990988
_cell_formula_units_Z   8
loop_
 _symmetry_equiv_pos_site_id
 _symmetry_equiv_pos_as_xyz
  1  'x, y, z'
  2  '-x, -y, z+1/2'
  3  '-x, y, z'
  4  'x, -y, z+1/2'
  5  'x+1/2, y+1/2, z'
  6  '-x+1/2, -y+1/2, z+1/2'
  7  '-x+1/2, y+1/2, z'
  8  'x+1/2, -y+1/2, z+1/2'
loop_
 _atom_site_type_symbol
 _atom_site_label
 _atom_site_symmetry_multiplicity
 _atom_site_fract_x
 _atom_site_fract_y
 _atom_site_fract_z
 _atom_site_occupancy
  H  H0  8  0.14846927  0.01183019  0.87824642  1
  H  H1  8  0.20964241  0.21027963  0.73751642  1
  C  C2  8  0.13219456  0.30986802  0.99300745  1
  C  C3  8  0.15383806  0.16780217  0.89460673  1
  C  C4  8  0.18187050  0.45843748  0.86834060  1
  N  N5  8  0.09640375  0.27347111  1.11104892  1
  N  N6  8  0.14964314  0.48923053  0.97660014  1
  N  N7  8  0.18564410  0.26740066  0.81484064  1
  N  N8  8  0.21117641  0.39350683  0.31708264  1
  O  O9  8  0.07714178  0.41542429  1.16905903  1
  O  O10  8  0.08955988  0.09843422  1.14458491  1
  O  O11  8  0.20874952  0.23136238  0.38962230  1
  O  O12  8  0.23790352  0.43826002  0.20161695  1
