###############################################################################################
#
# CIF file generated by modified CIFWriter class 
# in pymatgen (v2025.03.10) https://pymatgen.org/
#
###############################################################################################
data_PBE+MBD_tight_ffbcaccdf86e410
_symmetry_space_group_name_H-M   P4/n
_cell_length_a   15.35199883
_cell_length_b   15.35199883
_cell_length_c   5.33433971
_cell_angle_alpha   90.00000000
_cell_angle_beta   90.00000000
_cell_angle_gamma   90.00000000
_symmetry_Int_Tables_number   85
_chemical_formula_moiety   'C3 H2 N4 O4'
_chemical_formula_sum   'H16 C24 N32 O32'
_cell_volume   1257.21781739
_cell_formula_units_Z   8
loop_
 _symmetry_equiv_pos_site_id
 _symmetry_equiv_pos_as_xyz
  1  'x, y, z'
  2  '-y+1/2, x+1/2, z'
  3  '-x, -y, z'
  4  'y+1/2, -x+1/2, z'
  5  '-x+1/2, -y+1/2, -z'
  6  'y, -x, -z'
  7  'x+1/2, y+1/2, -z'
  8  '-y, x, -z'
loop_
 _atom_site_type_symbol
 _atom_site_label
 _atom_site_symmetry_multiplicity
 _atom_site_fract_x
 _atom_site_fract_y
 _atom_site_fract_z
 _atom_site_occupancy
  H  H0  8  0.13097950  0.14941755  -0.11269159  1
  H  H1  8  0.13468794  0.31508509  -0.15219853  1
  C  C2  8  0.13812661  0.27927400  0.02294617  1
  C  C3  8  0.14182151  0.17066570  0.28594358  1
  C  C4  8  0.14543502  0.30643904  0.27118424  1
  N  N5  8  0.08216826  0.85913995  0.63037399  1
  N  N6  8  0.10407115  0.64979667  0.35145653  1
  N  N7  8  0.13645394  0.19151187  0.03701672  1
  N  N8  8  0.14763244  0.23907721  0.43394652  1
  O  O9  8  0.02593918  0.86593626  0.79434459  1
  O  O10  8  0.04839012  0.64681747  0.18541927  1
  O  O11  8  0.06761763  0.85318908  0.40248123  1
  O  O12  8  0.08885072  0.65679890  0.57815317  1
