###############################################################################################
#
# CIF file generated by modified CIFWriter class 
# in pymatgen (v2025.03.10) https://pymatgen.org/
#
###############################################################################################
data_MACE-OFF23(L)_13e32ef3bb08e8
_symmetry_space_group_name_H-M   P-1
_cell_length_a   15.64263170
_cell_length_b   15.53822442
_cell_length_c   8.51332873
_cell_angle_alpha   86.54253384
_cell_angle_beta   50.29443773
_cell_angle_gamma   78.52062616
_symmetry_Int_Tables_number   2
_chemical_formula_moiety   'C6 H6 N12 O12'
_chemical_formula_sum   'H24 C24 N48 O48'
_cell_volume   1553.95720362
_cell_formula_units_Z   4
loop_
 _symmetry_equiv_pos_site_id
 _symmetry_equiv_pos_as_xyz
  1  'x, y, z'
  2  '-x, -y, -z'
  3  'x+1/2, y+1/2, z'
  4  '-x+1/2, -y+1/2, -z'
loop_
 _atom_site_type_symbol
 _atom_site_label
 _atom_site_symmetry_multiplicity
 _atom_site_fract_x
 _atom_site_fract_y
 _atom_site_fract_z
 _atom_site_occupancy
  H  H0  4  0.01969811  0.58796399  0.72998978  1
  H  H1  4  0.05575157  0.98455432  0.84730089  1
  H  H2  4  0.10261639  1.12412805  0.76696991  1
  H  H3  4  0.12118519  0.54486853  0.38102330  1
  H  H4  4  0.22071132  0.44653730  0.84540226  1
  H  H5  4  0.23236451  0.91073960  0.23797660  1
  C  C6  4  0.10718520  0.55700520  0.65453500  1
  C  C7  4  0.13899570  0.98064270  0.70112871  1
  C  C8  4  0.16983977  1.07366295  0.64558341  1
  C  C9  4  0.17519512  0.52852810  0.42112836  1
  C  C10  4  0.22681109  0.46886998  0.71625461  1
  C  C11  4  0.24266207  0.93782018  0.33779103  1
  N  N12  4  0.04130762  0.92691548  0.60246995  1
  N  N13  4  0.05849388  0.41904782  0.81558902  1
  N  N14  4  0.11626215  0.48537025  0.76418551  1
  N  N15  4  0.14077802  0.94087297  0.55002462  1
  N  N16  4  0.14280340  0.70133277  0.67938855  1
  N  N17  4  0.16030162  0.61214883  0.68651255  1
  N  N18  4  0.16408831  1.18199420  0.42856900  1
  N  N19  4  0.18680197  1.09326269  0.46097432  1
  N  N20  4  0.19627307  0.89591768  0.88451324  1
  N  N21  4  0.22655349  0.43444472  0.37942093  1
  N  N22  4  0.22727735  0.92974217  0.70276149  1
  N  N23  4  0.23937517  0.38786836  0.22411065  1
  O  O24  4  -0.04124558  0.93749647  0.78316301  1
  O  O25  4  -0.01619128  0.43344312  0.80389711  1
  O  O26  4  0.04509345  0.90372091  0.46482454  1
  O  O27  4  0.07926446  0.73342198  0.64637106  1
  O  O28  4  0.08306089  0.35551410  0.87880668  1
  O  O29  4  0.09925229  0.88672314  1.00901882  1
  O  O30  4  0.13216546  1.23673141  0.56036236  1
  O  O31  4  0.16961792  0.41667177  0.20350122  1
  O  O32  4  0.17476916  1.19414390  0.27682096  1
  O  O33  4  0.18602109  1.17655279  0.86290783  1
  O  O34  4  0.19096327  0.74024152  0.71171508  1
  O  O35  4  0.22962268  0.62324775  0.10367661  1
