###############################################################################################
#
# CIF file generated by modified CIFWriter class 
# in pymatgen (v2025.03.10) https://pymatgen.org/
#
###############################################################################################
data_MACE-OFF23(L)_1555cb8db560763
_symmetry_space_group_name_H-M   Pca2_1
_cell_length_a   23.49065454
_cell_length_b   7.87802428
_cell_length_c   12.42543749
_cell_angle_alpha   90.00000000
_cell_angle_beta   90.00000000
_cell_angle_gamma   90.00000000
_symmetry_Int_Tables_number   29
_chemical_formula_moiety   'C6 H6 N12 O12'
_chemical_formula_sum   'H24 C24 N48 O48'
_cell_volume   2299.45080196
_cell_formula_units_Z   4
loop_
 _symmetry_equiv_pos_site_id
 _symmetry_equiv_pos_as_xyz
  1  'x, y, z'
  2  '-x, -y, z+1/2'
  3  '-x+1/2, y, z+1/2'
  4  'x+1/2, -y, z'
loop_
 _atom_site_type_symbol
 _atom_site_label
 _atom_site_symmetry_multiplicity
 _atom_site_fract_x
 _atom_site_fract_y
 _atom_site_fract_z
 _atom_site_occupancy
  H  H0  4  -0.03047143  0.76821711  0.03786298  1
  H  H1  4  -0.02748029  0.41960146  0.27815633  1
  H  H2  4  0.00239902  0.58426103  0.42975911  1
  H  H3  4  0.01894083  1.04992638  0.30341587  1
  H  H4  4  0.06197640  0.63880111  0.03339466  1
  H  H5  4  0.11058049  0.91823865  0.29782798  1
  C  C6  4  -0.01233963  0.75192383  0.11702950  1
  C  C7  4  -0.00806691  0.53807290  0.25420265  1
  C  C8  4  0.01152243  0.64738436  0.35467342  1
  C  C9  4  0.01679296  0.92037606  0.27477191  1
  C  C10  4  0.04769406  0.66656347  0.11421050  1
  C  C11  4  0.07695336  0.83412110  0.27135088  1
  N  N12  4  -0.09941140  0.66872938  0.21341790  1
  N  N13  4  -0.04470467  0.63178614  0.18176999  1
  N  N14  4  -0.04267143  0.88315520  0.43621655  1
  N  N15  4  -0.04052762  1.05064734  0.13167053  1
  N  N16  4  -0.01576896  0.81298224  0.34819096  1
  N  N17  4  -0.00709428  0.91774026  0.16740622  1
  N  N18  4  0.03717264  0.51125872  0.17640290  1
  N  N19  4  0.07126753  0.68914208  0.34390823  1
  N  N20  4  0.08232992  0.40953004  0.20529074  1
  N  N21  4  0.08839797  0.77954291  0.16290976  1
  N  N22  4  0.10862256  0.66928845  0.43037572  1
  N  N23  4  0.14312006  0.79565897  0.11912575  1
  O  O24  4  -0.12383350  0.77722566  0.16238778  1
  O  O25  4  -0.11739412  0.58750179  0.28861360  1
  O  O26  4  -0.05963836  1.03864330  0.04122009  1
  O  O27  4  -0.05455697  0.78813349  0.50914686  1
  O  O28  4  -0.05360614  1.03314399  0.43044532  1
  O  O29  4  -0.04659145  1.16967016  0.19123230  1
  O  O30  4  0.07312019  0.31019805  0.27821465  1
  O  O31  4  0.09347256  0.57117137  0.49937554  1
  O  O32  4  0.12560854  0.42565269  0.15474702  1
  O  O33  4  0.14964507  0.74023930  0.02986976  1
  O  O34  4  0.15286987  0.74530803  0.42427638  1
  O  O35  4  0.17749577  0.86827255  0.17455444  1
