###############################################################################################
#
# CIF file generated by modified CIFWriter class 
# in pymatgen (v2025.03.10) https://pymatgen.org/
#
###############################################################################################
data_MACE-OFF23(L)_1684ceb09245d8d
_symmetry_space_group_name_H-M   P222
_cell_length_a   14.72031993
_cell_length_b   17.46292743
_cell_length_c   7.38648722
_cell_angle_alpha   90.00000000
_cell_angle_beta   90.00000000
_cell_angle_gamma   90.00000000
_symmetry_Int_Tables_number   16
_chemical_formula_moiety   'C6 H6 N12 O12'
_chemical_formula_sum   'H24 C24 N48 O48'
_cell_volume   1898.76950858
_cell_formula_units_Z   4
loop_
 _symmetry_equiv_pos_site_id
 _symmetry_equiv_pos_as_xyz
  1  'x, y, z'
  2  '-x, y, -z'
  3  '-x, -y, z'
  4  'x, -y, -z'
loop_
 _atom_site_type_symbol
 _atom_site_label
 _atom_site_symmetry_multiplicity
 _atom_site_fract_x
 _atom_site_fract_y
 _atom_site_fract_z
 _atom_site_occupancy
  H  H0  4  0.07669095  0.31564373  0.45340583  1
  H  H1  4  0.13288324  0.32236191  0.75606714  1
  H  H2  4  0.20317920  0.11773305  0.55634939  1
  H  H3  4  0.33500165  0.35663256  0.25257122  1
  H  H4  4  0.35480848  0.14233496  0.44097274  1
  H  H5  4  0.39153505  0.36481881  0.55635129  1
  C  C6  4  0.14563329  0.29529547  0.46388456  1
  C  C7  4  0.18272502  0.29994003  0.66256545  1
  C  C8  4  0.21727453  0.82195573  0.46064323  1
  C  C9  4  0.29825753  0.32055099  0.34607730  1
  C  C10  4  0.31598699  0.19397058  0.46442540  1
  C  C11  4  0.33549512  0.32531499  0.54416083  1
  N  N12  4  0.07850138  0.17428549  0.35326806  1
  N  N13  4  0.15162923  0.21475864  0.42063937  1
  N  N14  4  0.17107069  0.18464831  0.85901040  1
  N  N15  4  0.18147492  0.58135955  0.66525717  1
  N  N16  4  0.20160923  0.33990416  0.33870260  1
  N  N17  4  0.20517160  0.77937228  0.29374121  1
  N  N18  4  0.26159539  0.35008863  0.66098910  1
  N  N19  4  0.28517593  0.38749513  0.82415627  1
  N  N20  4  0.30970945  0.24039677  0.30259390  1
  N  N21  4  0.33708735  0.21336381  0.13731150  1
  N  N22  4  0.36317353  0.75294116  0.41697181  1
  N  N23  4  0.44392483  0.22927499  0.66436958  1
  O  O24  4  0.01389703  0.21136746  0.30024435  1
  O  O25  4  0.08672131  0.10587012  0.34925203  1
  O  O26  4  0.10261984  0.43548307  0.35328190  1
  O  O27  4  0.14445147  0.77385351  0.02098856  1
  O  O28  4  0.17543043  0.11582208  0.86091921  1
  O  O29  4  0.22564502  0.39311530  0.93525389  1
  O  O30  4  0.24448119  0.53824412  0.68946834  1
  O  O31  4  0.34504486  0.14480031  0.12436861  1
  O  O32  4  0.34907352  0.26016092  0.01847725  1
  O  O33  4  0.36114966  0.41234366  0.83270224  1
  O  O34  4  0.46153534  0.16212281  0.68126841  1
  O  O35  4  0.49036887  0.71731820  0.28565105  1
