###############################################################################################
#
# CIF file generated by modified CIFWriter class 
# in pymatgen (v2025.03.10) https://pymatgen.org/
#
###############################################################################################
data_MACE-OFF23(L)_17ba7d713c5990f
_symmetry_space_group_name_H-M   P2_1/c
_cell_length_a   11.64840448
_cell_length_b   9.53856871
_cell_length_c   15.05296441
_cell_angle_alpha   90.00000000
_cell_angle_beta   75.22487854
_cell_angle_gamma   90.00000000
_symmetry_Int_Tables_number   14
_chemical_formula_moiety   'C6 H6 N12 O12'
_chemical_formula_sum   'H24 C24 N48 O48'
_cell_volume   1617.21819289
_cell_formula_units_Z   4
loop_
 _symmetry_equiv_pos_site_id
 _symmetry_equiv_pos_as_xyz
  1  'x, y, z'
  2  '-x, -y, -z'
  3  '-x, y+1/2, -z+1/2'
  4  'x, -y+1/2, z+1/2'
loop_
 _atom_site_type_symbol
 _atom_site_label
 _atom_site_symmetry_multiplicity
 _atom_site_fract_x
 _atom_site_fract_y
 _atom_site_fract_z
 _atom_site_occupancy
  H  H0  4  0.07388462  0.82148127  0.51003852  1
  H  H1  4  0.24547407  0.91982523  0.54183955  1
  H  H2  4  0.25758361  1.01919707  0.28190572  1
  H  H3  4  0.27329562  0.49729304  0.36601712  1
  H  H4  4  0.36960676  0.66635488  0.69972024  1
  H  H5  4  0.44664469  0.59355716  0.40007384  1
  C  C6  4  0.15192358  0.80428779  0.45437451  1
  C  C7  4  0.26089049  0.93141529  0.32636389  1
  C  C8  4  0.26599220  0.63151507  0.97588342  1
  C  C9  4  0.27057576  0.61029131  0.37057880  1
  C  C10  4  0.33609780  0.69273959  0.77136747  1
  C  C11  4  0.38450395  0.82667496  0.89173468  1
  N  N12  4  0.04720858  0.97162873  0.38064216  1
  N  N13  4  0.12115348  0.56752056  0.51407373  1
  N  N14  4  0.14268402  0.62176363  0.87132765  1
  N  N15  4  0.16301188  0.65483871  0.43735443  1
  N  N16  4  0.19445331  0.85708126  0.73345712  1
  N  N17  4  0.27271564  0.67585831  0.28337437  1
  N  N18  4  0.30737708  1.11413936  0.42642714  1
  N  N19  4  0.31055245  0.97019510  0.40240516  1
  N  N20  4  0.34787891  0.75496060  0.47578839  1
  N  N21  4  0.42671775  0.73357652  1.03169258  1
  N  N22  4  0.43123003  0.73981545  0.81045046  1
  N  N23  4  0.47151889  0.34456410  0.19599544  1
  O  O24  4  -0.04601776  0.93491751  0.43219312  1
  O  O25  4  0.03515590  0.89167576  1.07115853  1
  O  O26  4  0.06460942  1.07600990  0.33426905  1
  O  O27  4  0.14255753  0.53309964  0.25037191  1
  O  O28  4  0.17312314  0.45812136  0.51404533  1
  O  O29  4  0.18677628  0.72817989  0.17442685  1
  O  O30  4  0.30385961  1.14000442  0.50501203  1
  O  O31  4  0.31473422  0.30506313  0.86354386  1
  O  O32  4  0.40705582  0.18566571  0.64756812  1
  O  O33  4  0.42570008  0.62477816  1.07305057  1
  O  O34  4  0.45872124  0.43842668  0.25191890  1
  O  O35  4  0.48444948  0.66315259  0.53703908  1
