###############################################################################################
#
# CIF file generated by modified CIFWriter class 
# in pymatgen (v2025.03.10) https://pymatgen.org/
#
###############################################################################################
data_MACE-OFF23(L)_1894deae459f9a1
_symmetry_space_group_name_H-M   P2/c
_cell_length_a   7.87801573
_cell_length_b   13.42562682
_cell_length_c   14.89468268
_cell_angle_alpha   83.53712269
_cell_angle_beta   90.00000000
_cell_angle_gamma   90.00000000
_symmetry_Int_Tables_number   13
_chemical_formula_moiety   'C6 H6 N12 O12'
_chemical_formula_sum   'H24 C24 N48 O48'
_cell_volume   1565.35887222
_cell_formula_units_Z   4
loop_
 _symmetry_equiv_pos_site_id
 _symmetry_equiv_pos_as_xyz
  1  'x, y, z'
  2  '-x, -y, -z'
  3  'x, -y, -z+1/2'
  4  '-x, y, z+1/2'
loop_
 _atom_site_type_symbol
 _atom_site_label
 _atom_site_symmetry_multiplicity
 _atom_site_fract_x
 _atom_site_fract_y
 _atom_site_fract_z
 _atom_site_occupancy
  H  H0  4  0.01389654  0.29301513  -0.01760719  1
  H  H1  4  0.10296652  0.12464320  -0.00555658  1
  H  H2  4  0.31927336  0.41098997  0.16271375  1
  H  H3  4  0.39547038  0.14335606  0.53834590  1
  H  H4  4  0.44681155  0.43960251  0.02074951  1
  H  H5  4  0.47633333  0.11594576  0.18341627  1
  C  C6  4  0.13677915  0.28463161  0.01439070  1
  C  C7  4  0.19684378  0.17101784  0.02254952  1
  C  C8  4  0.31352782  0.34560241  0.12656582  1
  C  C9  4  0.39921857  0.36431903  0.03162819  1
  C  C10  4  0.40714925  0.16989829  0.13815708  1
  C  C11  4  0.49252667  0.18902286  0.04304701  1
  N  N12  4  0.00700353  0.32401520  0.16002728  1
  N  N13  4  0.12081158  0.11025060  0.18052827  1
  N  N14  4  0.14172417  0.32297989  0.10166458  1
  N  N15  4  0.20660832  0.43615851  -0.08709007  1
  N  N16  4  0.24294696  0.13200234  0.11460404  1
  N  N17  4  0.26391405  0.34882595  -0.03398027  1
  N  N18  4  0.34064933  0.32065256  0.45988546  1
  N  N19  4  0.36112613  0.16277721  -0.02031717  1
  N  N20  4  0.39009935  0.26126954  0.18082031  1
  N  N21  4  0.39020448  0.07972291  -0.06663621  1
  N  N22  4  0.46289407  0.29416447  0.52686211  1
  N  N23  4  0.49323591  0.27967698  0.74673513  1
  O  O24  4  -0.13008873  0.30231684  0.13051449  1
  O  O25  4  -0.02069908  0.09626350  0.15348958  1
  O  O26  4  0.03909853  0.34647201  0.23430764  1
  O  O27  4  0.05753897  0.44209458  -0.10524145  1
  O  O28  4  0.16932380  0.10628018  0.25787915  1
  O  O29  4  0.26049529  0.25311868  0.43311212  1
  O  O30  4  0.26765443  0.03657621  -0.09133631  1
  O  O31  4  0.31606040  0.49556463  -0.11254670  1
  O  O32  4  0.32248090  0.40891840  0.43678970  1
  O  O33  4  0.40328024  0.21032148  0.77583948  1
  O  O34  4  0.46281480  0.06108110  0.41828862  1
  O  O35  4  0.49404395  0.36249016  0.77125647  1
