###############################################################################################
#
# CIF file generated by modified CIFWriter class 
# in pymatgen (v2025.03.10) https://pymatgen.org/
#
###############################################################################################
data_MACE-OFF23(L)_18daf237894ca0b
_symmetry_space_group_name_H-M   P2_12_12_1
_cell_length_a   8.07412694
_cell_length_b   13.49923144
_cell_length_c   14.20490136
_cell_angle_alpha   90.00000000
_cell_angle_beta   90.00000000
_cell_angle_gamma   90.00000000
_symmetry_Int_Tables_number   19
_chemical_formula_moiety   'C6 H6 N12 O12'
_chemical_formula_sum   'H24 C24 N48 O48'
_cell_volume   1548.25623859
_cell_formula_units_Z   4
loop_
 _symmetry_equiv_pos_site_id
 _symmetry_equiv_pos_as_xyz
  1  'x, y, z'
  2  '-x+1/2, -y, z+1/2'
  3  'x+1/2, -y+1/2, -z'
  4  '-x, y+1/2, -z+1/2'
loop_
 _atom_site_type_symbol
 _atom_site_label
 _atom_site_symmetry_multiplicity
 _atom_site_fract_x
 _atom_site_fract_y
 _atom_site_fract_z
 _atom_site_occupancy
  H  H0  4  -0.19799073  -0.14944630  0.34543787  1
  H  H1  4  0.04146604  0.18608475  0.44288285  1
  H  H2  4  0.14907927  -0.09606606  0.54017850  1
  H  H3  4  0.17501064  0.15064256  0.29792504  1
  H  H4  4  0.20570301  1.13048317  0.89739320  1
  H  H5  4  0.23812018  0.48991957  0.71224617  1
  C  C6  4  -0.14569213  0.00985697  0.32551847  1
  C  C7  4  -0.10235007  -0.09657869  0.36299577  1
  C  C8  4  0.02928887  0.10932237  0.42275971  1
  C  C9  4  0.09536604  -0.05839803  0.48034712  1
  C  C10  4  0.11997398  0.08537077  0.32869354  1
  C  C11  4  0.18999427  -0.08164905  0.38637889  1
  N  N12  4  -0.14018556  0.08503383  0.39884621  1
  N  N13  4  -0.12323629  -0.17906434  0.51493209  1
  N  N14  4  -0.07457912  -0.09332109  0.46461651  1
  N  N15  4  -0.04486981  0.09251269  0.18272538  1
  N  N16  4  -0.00982475  0.04513051  0.26732880  1
  N  N17  4  0.05994464  -0.12892024  0.33239518  1
  N  N18  4  0.08424194  -0.18425098  0.25289823  1
  N  N19  4  0.09027431  0.04736343  0.49917257  1
  N  N20  4  0.11330989  0.98866139  0.78807257  1
  N  N21  4  0.21569443  0.08842589  0.55375015  1
  N  N22  4  0.23756659  0.40940672  0.53349130  1
  N  N23  4  0.24742973  0.01220189  0.34749992  1
  O  O24  4  -0.24323954  -0.22192623  0.48410931  1
  O  O25  4  -0.22929488  0.13555664  0.53711184  1
  O  O26  4  -0.17258941  0.06995140  0.14486780  1
  O  O27  4  -0.04721023  -0.19890891  0.58510710  1
  O  O28  4  -0.03616789  -0.19362353  0.20228547  1
  O  O29  4  0.03676080  1.06534661  0.78345687  1
  O  O30  4  0.05987810  0.14883034  0.15287250  1
  O  O31  4  0.07975647  0.91158355  0.74970590  1
  O  O32  4  0.10696242  0.44905144  0.55342299  1
  O  O33  4  0.21729990  0.96630293  1.11000849  1
  O  O34  4  0.21937026  -0.22067239  0.24256338  1
  O  O35  4  0.24575855  0.17496258  0.54204414  1
