###############################################################################################
#
# CIF file generated by modified CIFWriter class 
# in pymatgen (v2025.03.10) https://pymatgen.org/
#
###############################################################################################
data_MACE-OFF23(L)_18ecd32dbe30a44
_symmetry_space_group_name_H-M   P2_1/c
_cell_length_a   13.87090763
_cell_length_b   9.15818385
_cell_length_c   13.06349839
_cell_angle_alpha   90.00000000
_cell_angle_beta   91.14262319
_cell_angle_gamma   90.00000000
_symmetry_Int_Tables_number   14
_chemical_formula_moiety   'C6 H6 N12 O12'
_chemical_formula_sum   'H24 C24 N48 O48'
_cell_volume   1659.15655522
_cell_formula_units_Z   4
loop_
 _symmetry_equiv_pos_site_id
 _symmetry_equiv_pos_as_xyz
  1  'x, y, z'
  2  '-x, -y, -z'
  3  '-x, y+1/2, -z+1/2'
  4  'x, -y+1/2, z+1/2'
loop_
 _atom_site_type_symbol
 _atom_site_label
 _atom_site_symmetry_multiplicity
 _atom_site_fract_x
 _atom_site_fract_y
 _atom_site_fract_z
 _atom_site_occupancy
  H  H0  4  0.11632956  1.03015769  0.71323097  1
  H  H1  4  0.11732748  0.30594159  0.35579397  1
  H  H2  4  0.16947182  0.65565997  0.55052713  1
  H  H3  4  0.16985949  0.81663767  0.40767256  1
  H  H4  4  0.39794065  0.41163827  0.30281528  1
  H  H5  4  0.42501609  0.89208970  0.91572819  1
  C  C6  4  0.16689997  1.10386128  0.86664880  1
  C  C7  4  0.16713320  0.99781311  0.77278200  1
  C  C8  4  0.19752071  0.60375275  0.48331302  1
  C  C9  4  0.19878457  0.71016147  0.38971048  1
  C  C10  4  0.33055247  1.04215971  0.82745505  1
  C  C11  4  0.34877325  0.90889910  0.90264974  1
  N  N12  4  0.06290863  0.71890143  0.26588948  1
  N  N13  4  0.08277074  0.41244972  0.52941323  1
  N  N14  4  0.13896782  1.02141626  0.95604960  1
  N  N15  4  0.14487920  0.85028038  0.80407534  1
  N  N16  4  0.26683450  0.49102440  0.24094568  1
  N  N17  4  0.26785973  1.15355527  0.87088051  1
  N  N18  4  0.29840829  0.92324078  0.66211826  1
  N  N19  4  0.29876328  0.93594655  0.99764469  1
  N  N20  4  0.30058908  0.72116414  0.36308570  1
  N  N21  4  0.30167349  0.27241450  0.45687196  1
  N  N22  4  0.34595631  0.58111018  0.59134984  1
  N  N23  4  0.34823836  0.85572883  0.38123387  1
  O  O24  4  0.01993590  0.65727728  0.19696517  1
  O  O25  4  0.03467303  1.19110497  1.00226252  1
  O  O26  4  0.04253773  0.66513254  0.80382363  1
  O  O27  4  0.08255638  0.46796103  0.61345826  1
  O  O28  4  0.23702431  0.88022416  0.60177848  1
  O  O29  4  0.24211199  0.21281891  0.50877603  1
  O  O30  4  0.29559886  0.58238524  0.66585840  1
  O  O31  4  0.29775857  0.96204545  0.38899626  1
  O  O32  4  0.38407690  0.59774045  0.15788200  1
  O  O33  4  0.38797845  0.27368953  0.47036650  1
  O  O34  4  0.43266888  0.91286142  1.08959559  1
  O  O35  4  0.43481193  0.64965027  0.88261660  1
