###############################################################################################
#
# CIF file generated by modified CIFWriter class 
# in pymatgen (v2025.03.10) https://pymatgen.org/
#
###############################################################################################
data_MACE-OFF23(L)_1a3445915a1dbc7
_symmetry_space_group_name_H-M   P2_1
_cell_length_a   9.77961220
_cell_length_b   15.27948311
_cell_length_c   11.93775391
_cell_angle_alpha   90.00000000
_cell_angle_beta   90.00000000
_cell_angle_gamma   90.00531103
_symmetry_Int_Tables_number   4
_chemical_formula_moiety   'C6 H6 N12 O12'
_chemical_formula_sum   'H24 C24 N48 O48'
_cell_volume   1783.82775308
_cell_formula_units_Z   4
loop_
 _symmetry_equiv_pos_site_id
 _symmetry_equiv_pos_as_xyz
  1  'x, y, z'
  2  '-x, -y, z+1/2'
  3  'x+1/2, y+1/2, z'
  4  '-x+1/2, -y+1/2, z+1/2'
loop_
 _atom_site_type_symbol
 _atom_site_label
 _atom_site_symmetry_multiplicity
 _atom_site_fract_x
 _atom_site_fract_y
 _atom_site_fract_z
 _atom_site_occupancy
  H  H0  4  -0.12378733  0.99634338  1.03062007  1
  H  H1  4  -0.12317825  0.73624154  0.93617811  1
  H  H2  4  -0.00053952  1.01154001  0.71167686  1
  H  H3  4  0.00120289  0.86393111  0.65552105  1
  H  H4  4  0.12318528  0.99675766  1.03055579  1
  H  H5  4  0.12333029  0.73642328  0.93679671  1
  C  C6  4  -0.08059928  0.95315383  0.96807736  1
  C  C7  4  -0.08004038  0.79866221  0.91182040  1
  C  C8  4  -0.00015048  0.96882769  0.78352970  1
  C  C9  4  0.00062002  0.86968807  0.74571145  1
  C  C10  4  0.08014774  0.95337951  0.96813158  1
  C  C11  4  0.08020915  0.79877851  0.91221338  1
  N  N12  4  -0.24124776  0.83711163  0.75958807  1
  N  N13  4  -0.18127296  1.06743612  0.84808506  1
  N  N14  4  -0.12721724  0.86535055  0.98920067  1
  N  N15  4  -0.11715510  0.98522810  0.85600489  1
  N  N16  4  -0.10927883  0.81864933  0.79385900  1
  N  N17  4  0.11022091  0.81880172  0.79452830  1
  N  N18  4  0.11661531  0.98560797  0.85596737  1
  N  N19  4  0.12690327  0.86563622  0.98966299  1
  N  N20  4  0.17955569  1.06822564  0.84794990  1
  N  N21  4  0.24173565  0.64472132  0.53772813  1
  N  N22  4  0.24184306  0.35467611  1.03770709  1
  N  N23  4  0.24256252  0.83655835  0.76063470  1
  O  O24  4  -0.24649115  1.09017240  0.92858020  1
  O  O25  4  -0.16914012  1.10507610  0.75981378  1
  O  O26  4  0.16635311  1.10594665  0.75981416  1
  O  O27  4  0.16709811  0.69449804  0.31674644  1
  O  O28  4  0.16776039  0.30672793  0.81556961  1
  O  O29  4  0.17770277  0.57864085  0.55345129  1
  O  O30  4  0.17795781  0.42064392  1.05459725  1
  O  O31  4  0.20998847  0.71866119  0.56083186  1
  O  O32  4  0.21018656  0.28056482  1.06000382  1
  O  O33  4  0.24497443  1.09116019  0.92821638  1
  O  O34  4  0.24661812  0.61979272  0.17648278  1
  O  O35  4  0.24886671  0.38069290  0.67528336  1
