###############################################################################################
#
# CIF file generated by modified CIFWriter class 
# in pymatgen (v2025.03.10) https://pymatgen.org/
#
###############################################################################################
data_MACE-OFF23(L)_1a4c82f13c0b5f4
_symmetry_space_group_name_H-M   P4_2
_cell_length_a   12.53877160
_cell_length_b   12.53877160
_cell_length_c   10.20867632
_cell_angle_alpha   90.00000000
_cell_angle_beta   90.00000000
_cell_angle_gamma   90.00000000
_symmetry_Int_Tables_number   77
_chemical_formula_moiety   'C6 H6 N12 O12'
_chemical_formula_sum   'H24 C24 N48 O48'
_cell_volume   1605.01618831
_cell_formula_units_Z   4
loop_
 _symmetry_equiv_pos_site_id
 _symmetry_equiv_pos_as_xyz
  1  'x, y, z'
  2  '-y, x, z+1/2'
  3  '-x, -y, z'
  4  'y, -x, z+1/2'
loop_
 _atom_site_type_symbol
 _atom_site_label
 _atom_site_symmetry_multiplicity
 _atom_site_fract_x
 _atom_site_fract_y
 _atom_site_fract_z
 _atom_site_occupancy
  H  H0  4  0.03747385  0.65523231  0.95575368  1
  H  H1  4  0.08124102  0.12782798  0.23657361  1
  H  H2  4  0.13114204  0.38349962  0.46764551  1
  H  H3  4  0.15774216  0.54672783  0.83024372  1
  H  H4  4  0.18981855  0.25165840  0.11636561  1
  H  H5  4  0.27901034  0.33037622  0.59350663  1
  C  C6  4  0.10755884  0.69818145  0.92403301  1
  C  C7  4  0.14501939  0.16098827  0.29512734  1
  C  C8  4  0.17235872  0.31776079  0.42154146  1
  C  C9  4  0.18708154  0.62690153  0.84464186  1
  C  C10  4  0.21606575  0.24211789  0.21655356  1
  C  C11  4  0.27279644  0.28292766  0.50550051  1
  N  N12  4  -0.01803370  0.78114930  0.77318099  1
  N  N13  4  -0.00035676  0.22207808  0.43888814  1
  N  N14  4  0.07396598  0.79076162  0.84808185  1
  N  N15  4  0.10407486  0.22634417  0.39990679  1
  N  N16  4  0.13336504  0.71671844  1.16164366  1
  N  N17  4  0.15313392  0.42869747  0.22562979  1
  N  N18  4  0.17007477  0.73426247  1.03544068  1
  N  N19  4  0.20252387  0.67611154  0.71757843  1
  N  N20  4  0.20560805  0.34376872  0.28812621  1
  N  N21  4  0.22634489  0.60937134  0.60974476  1
  N  N22  4  0.28056926  0.62787516  0.93097080  1
  N  N23  4  0.37602403  0.58416699  0.88714750  1
  O  O24  4  -0.07282672  0.70362127  0.79266517  1
  O  O25  4  -0.04925424  0.14303180  0.40773840  1
  O  O26  4  -0.03680685  0.85283592  0.69662917  1
  O  O27  4  -0.03324127  0.29673486  0.50226055  1
  O  O28  4  0.03711873  0.70578795  1.17224185  1
  O  O29  4  0.11479650  0.49566149  0.29570451  1
  O  O30  4  0.15618352  0.42974507  0.10705238  1
  O  O31  4  0.18804215  0.52107990  0.61484605  1
  O  O32  4  0.19782034  0.71678807  1.24832877  1
  O  O33  4  0.27832729  0.64764545  0.52319430  1
  O  O34  4  0.36943487  0.52324791  0.79595338  1
  O  O35  4  0.38978349  0.45460010  0.44745478  1
