###############################################################################################
#
# CIF file generated by modified CIFWriter class 
# in pymatgen (v2025.03.10) https://pymatgen.org/
#
###############################################################################################
data_MACE-OFF23(L)_1b0fb933b4c368e
_symmetry_space_group_name_H-M   Pca2_1
_cell_length_a   15.33489559
_cell_length_b   8.17314883
_cell_length_c   12.99800302
_cell_angle_alpha   90.00000000
_cell_angle_beta   90.00000000
_cell_angle_gamma   90.00000000
_symmetry_Int_Tables_number   29
_chemical_formula_moiety   'C6 H6 N12 O12'
_chemical_formula_sum   'H24 C24 N48 O48'
_cell_volume   1629.09670216
_cell_formula_units_Z   4
loop_
 _symmetry_equiv_pos_site_id
 _symmetry_equiv_pos_as_xyz
  1  'x, y, z'
  2  '-x, -y, z+1/2'
  3  '-x+1/2, y, z+1/2'
  4  'x+1/2, -y, z'
loop_
 _atom_site_type_symbol
 _atom_site_label
 _atom_site_symmetry_multiplicity
 _atom_site_fract_x
 _atom_site_fract_y
 _atom_site_fract_z
 _atom_site_occupancy
  H  H0  4  -0.03553037  0.91741572  0.16169047  1
  H  H1  4  -0.02779396  0.65062258  0.24043196  1
  H  H2  4  0.15934066  0.67330652  0.01927650  1
  H  H3  4  0.18450096  1.05816385  0.32566944  1
  H  H4  4  0.19249018  0.79281852  0.40178387  1
  H  H5  4  0.21495483  0.75547650  0.61452368  1
  C  C6  4  0.03053857  0.87935558  0.17724069  1
  C  C7  4  0.03560292  0.70559441  0.22836403  1
  C  C8  4  0.14238240  0.72497943  0.09297428  1
  C  C9  4  0.16164614  0.96254046  0.27500885  1
  C  C10  4  0.16643673  0.78874658  0.32478451  1
  C  C11  4  0.22530456  0.77919395  0.15600511  1
  N  N12  4  0.02084322  1.08553198  0.31193044  1
  N  N13  4  0.05379471  0.62414415  0.41089598  1
  N  N14  4  0.07330655  1.00192488  0.24172420  1
  N  N15  4  0.07885359  0.72350029  0.32720151  1
  N  N16  4  0.07902996  0.85514029  0.08257441  1
  N  N17  4  0.08562403  0.61599706  0.15059848  1
  N  N18  4  0.09559943  0.98287341  0.01682751  1
  N  N19  4  0.11308701  0.45886290  0.16909201  1
  N  N20  4  0.20387003  0.61273888  0.79073302  1
  N  N21  4  0.21229230  1.05409333  0.67168234  1
  N  N22  4  0.21652419  0.95077651  0.18425433  1
  N  N23  4  0.22380123  0.69805028  0.25530438  1
  O  O24  4  -0.05503110  1.10247734  0.28866272  1
  O  O25  4  -0.01662712  0.56067547  0.40590027  1
  O  O26  4  0.04475321  1.09583701  0.01798849  1
  O  O27  4  0.05605372  1.13830754  0.38794207  1
  O  O28  4  0.07549358  0.38620783  0.23694773  1
  O  O29  4  0.10430670  0.61848819  0.48214870  1
  O  O30  4  0.14932017  0.57950626  0.72751705  1
  O  O31  4  0.15940128  0.96730686  -0.03765287  1
  O  O32  4  0.16626765  1.02299136  0.59842922  1
  O  O33  4  0.17072898  0.40755183  0.11445235  1
  O  O34  4  0.20444266  1.16662730  0.73079129  1
  O  O35  4  0.20592267  0.57398097  0.88033527  1
