###############################################################################################
#
# CIF file generated by modified CIFWriter class 
# in pymatgen (v2025.03.10) https://pymatgen.org/
#
###############################################################################################
data_MACE-OFF23(L)_1c404cd67e34315
_symmetry_space_group_name_H-M   P2_1/c
_cell_length_a   9.48616311
_cell_length_b   11.24825655
_cell_length_c   15.25906385
_cell_angle_alpha   90.00000000
_cell_angle_beta   94.62760160
_cell_angle_gamma   90.00000000
_symmetry_Int_Tables_number   14
_chemical_formula_moiety   'C6 H6 N12 O12'
_chemical_formula_sum   'H24 C24 N48 O48'
_cell_volume   1622.87710763
_cell_formula_units_Z   4
loop_
 _symmetry_equiv_pos_site_id
 _symmetry_equiv_pos_as_xyz
  1  'x, y, z'
  2  '-x, -y, -z'
  3  '-x, y+1/2, -z+1/2'
  4  'x, -y+1/2, z+1/2'
loop_
 _atom_site_type_symbol
 _atom_site_label
 _atom_site_symmetry_multiplicity
 _atom_site_fract_x
 _atom_site_fract_y
 _atom_site_fract_z
 _atom_site_occupancy
  H  H0  4  0.07089476  0.92719253  0.89324200  1
  H  H1  4  0.08087245  0.83713963  0.63512937  1
  H  H2  4  0.19598374  0.77359151  0.96595980  1
  H  H3  4  0.27576549  0.96907142  0.67027657  1
  H  H4  4  0.30098163  0.93423621  0.26801859  1
  H  H5  4  0.49413446  0.69557196  0.80218361  1
  C  C6  4  0.13344609  0.87933608  0.84879021  1
  C  C7  4  0.13589526  0.81825611  0.69833331  1
  C  C8  4  0.21904705  0.77545467  0.89811219  1
  C  C9  4  0.26302016  0.90409594  0.72119861  1
  C  C10  4  0.26678080  0.84391352  0.27716480  1
  C  C11  4  0.39418957  0.74205574  0.80023914  1
  N  N12  4  -0.06730169  0.73296453  0.28046365  1
  N  N13  4  0.04701237  0.84121521  0.77069197  1
  N  N14  4  0.13278208  0.61611104  0.63666489  1
  N  N15  4  0.16739865  0.56212162  0.90467101  1
  N  N16  4  0.18344474  0.83614794  0.35373770  1
  N  N17  4  0.18855914  0.80268737  0.19816659  1
  N  N18  4  0.22211033  0.54083782  0.30229338  1
  N  N19  4  0.31550015  1.03311146  0.84988009  1
  N  N20  4  0.36983187  0.78929451  0.88773730  1
  N  N21  4  0.39152792  0.83438110  0.73461227  1
  N  N22  4  0.46286376  0.75004001  0.45935237  1
  N  N23  4  0.48200048  0.38302267  0.78850426  1
  O  O24  4  -0.11698807  0.78131920  0.21420368  1
  O  O25  4  -0.10625888  0.74068810  0.35347672  1
  O  O26  4  0.06364172  0.65557494  0.57320929  1
  O  O27  4  0.15700085  0.92299783  0.48238886  1
  O  O28  4  0.15912780  1.03052525  0.36500958  1
  O  O29  4  0.15975084  0.51251012  0.65116334  1
  O  O30  4  0.29350563  1.04977414  0.92567350  1
  O  O31  4  0.37437178  0.34510780  0.75154009  1
  O  O32  4  0.40934148  0.42430664  0.31040229  1
  O  O33  4  0.41880589  0.75864743  1.03136281  1
  O  O34  4  0.42239480  0.28300846  0.05806939  1
  O  O35  4  0.49183270  0.04056455  0.34505385  1
