###############################################################################################
#
# CIF file generated by modified CIFWriter class 
# in pymatgen (v2025.03.10) https://pymatgen.org/
#
###############################################################################################
data_MACE-OFF23(L)_1cd1cbce0a5a57
_symmetry_space_group_name_H-M   Pmc2_1
_cell_length_a   22.64450152
_cell_length_b   7.80058832
_cell_length_c   13.30797086
_cell_angle_alpha   90.00000000
_cell_angle_beta   90.00000000
_cell_angle_gamma   90.00000000
_symmetry_Int_Tables_number   26
_chemical_formula_moiety   'C6 H6 N12 O12'
_chemical_formula_sum   'H24 C24 N48 O48'
_cell_volume   2350.72574986
_cell_formula_units_Z   4
loop_
 _symmetry_equiv_pos_site_id
 _symmetry_equiv_pos_as_xyz
  1  'x, y, z'
  2  '-x, -y, z+1/2'
  3  '-x, y, z'
  4  'x, -y, z+1/2'
loop_
 _atom_site_type_symbol
 _atom_site_label
 _atom_site_symmetry_multiplicity
 _atom_site_fract_x
 _atom_site_fract_y
 _atom_site_fract_z
 _atom_site_occupancy
  H  H0  4  0.16671143  0.49433219  0.25070927  1
  H  H1  4  0.19429212  0.15856091  0.47973247  1
  H  H2  4  0.24573805  0.39386935  0.84929077  1
  H  H3  4  0.26147495  -0.04283109  0.40671685  1
  H  H4  4  0.28095378  0.14368717  0.12298994  1
  H  H5  4  0.35997720  0.25106114  0.22546462  1
  C  C6  4  0.19802482  0.39656387  0.27247430  1
  C  C7  4  0.21498121  0.20817163  0.41251415  1
  C  C8  4  0.24997978  0.46998158  0.33688624  1
  C  C9  4  0.25947213  0.07460212  0.36387307  1
  C  C10  4  0.26590121  0.18571106  0.19599027  1
  C  C11  4  0.31744177  0.25825871  0.26219437  1
  N  N12  4  0.12234475  0.18033784  0.31513203  1
  N  N13  4  0.17207888  0.27202415  0.34089206  1
  N  N14  4  0.19434456  0.34297294  0.09073372  1
  N  N15  4  0.20311582  -0.06755417  0.22755049  1
  N  N16  4  0.22209401  0.31848722  0.18274568  1
  N  N17  4  0.24316478  0.37294041  0.42979193  1
  N  N18  4  0.24665574  0.04284354  0.25816138  1
  N  N19  4  0.27993159  0.39927719  0.50926637  1
  N  N20  4  0.30529813  0.43418639  0.28782983  1
  N  N21  4  0.31697716  0.15424518  0.35421742  1
  N  N22  4  0.34463901  0.43580080  0.76383367  1
  N  N23  4  0.36706410  0.05411376  0.37758059  1
  O  O24  4  0.09795200  0.22546521  0.23866680  1
  O  O25  4  0.10815489  0.06709916  0.37195927  1
  O  O26  4  0.15821392  0.45622181  0.08657516  1
  O  O27  4  0.18336921  -0.04441755  0.14417290  1
  O  O28  4  0.18872560  -0.17738683  0.28689396  1
  O  O29  4  0.21089142  0.25433867  0.02175493  1
  O  O30  4  0.27612868  0.29880801  0.57875901  1
  O  O31  4  0.31156663  0.47564020  1.00576652  1
  O  O32  4  0.33048624  0.29229992  0.78869015  1
  O  O33  4  0.36074173  -0.04392911  0.44662132  1
  O  O34  4  0.38900888  0.47798727  0.72052137  1
  O  O35  4  0.41113035  0.08405493  0.33030756  1
