###############################################################################################
#
# CIF file generated by modified CIFWriter class 
# in pymatgen (v2025.03.10) https://pymatgen.org/
#
###############################################################################################
data_MACE-OFF23(L)_1d9af6582ec9f2d
_symmetry_space_group_name_H-M   P2_1/c
_cell_length_a   8.07461939
_cell_length_b   12.78991969
_cell_length_c   17.92415363
_cell_angle_alpha   90.00000000
_cell_angle_beta   75.75008497
_cell_angle_gamma   90.00000000
_symmetry_Int_Tables_number   14
_chemical_formula_moiety   'C6 H6 N12 O12'
_chemical_formula_sum   'H24 C24 N48 O48'
_cell_volume   1794.13845566
_cell_formula_units_Z   4
loop_
 _symmetry_equiv_pos_site_id
 _symmetry_equiv_pos_as_xyz
  1  'x, y, z'
  2  '-x, -y, -z'
  3  '-x, y+1/2, -z+1/2'
  4  'x, -y+1/2, z+1/2'
loop_
 _atom_site_type_symbol
 _atom_site_label
 _atom_site_symmetry_multiplicity
 _atom_site_fract_x
 _atom_site_fract_y
 _atom_site_fract_z
 _atom_site_occupancy
  H  H0  4  -0.09554272  0.25367702  0.27537077  1
  H  H1  4  0.03359891  0.16065677  0.65729753  1
  H  H2  4  0.08677088  0.47064116  0.61951055  1
  H  H3  4  0.35676515  0.50274573  0.63819444  1
  H  H4  4  0.37993161  0.30406144  0.81290984  1
  H  H5  4  0.48955069  0.71565985  0.80575467  1
  C  C6  4  0.02590386  0.28047913  0.74684705  1
  C  C7  4  0.11063069  0.22429588  0.66969924  1
  C  C8  4  0.12520562  0.40633063  0.65045503  1
  C  C9  4  0.30806630  0.42876833  0.66359339  1
  C  C10  4  0.31023232  0.31436837  0.76913862  1
  C  C11  4  0.39559188  0.25745977  0.69186777  1
  N  N12  4  -0.16702534  0.08236700  0.22423556  1
  N  N13  4  0.00197779  0.29818415  0.56591555  1
  N  N14  4  0.00225942  0.38898505  0.72466662  1
  N  N15  4  0.09597930  0.21553964  0.86374404  1
  N  N16  4  0.12527808  0.30649967  0.61082703  1
  N  N17  4  0.13635918  0.27866253  0.79878030  1
  N  N18  4  0.23486914  0.49808671  0.79528037  1
  N  N19  4  0.27380456  0.18458700  0.67426396  1
  N  N20  4  0.31296582  0.42259496  0.74402206  1
  N  N21  4  0.32382954  0.08474319  0.64806342  1
  N  N22  4  0.43079088  0.34491097  0.63779221  1
  N  N23  4  0.48708945  0.32419004  0.55961738  1
  O  O24  4  -0.27942958  0.14391983  0.25057513  1
  O  O25  4  -0.18298405  -0.00303477  0.19861043  1
  O  O26  4  -0.05709288  0.12099915  0.04945913  1
  O  O27  4  -0.04544669  0.32254572  0.37953743  1
  O  O28  4  -0.02620223  0.28917451  0.04760301  1
  O  O29  4  0.20079244  0.47618797  0.86232229  1
  O  O30  4  0.20515628  0.20522551  0.89864081  1
  O  O31  4  0.21322906  0.58195787  0.76640621  1
  O  O32  4  0.22060569  0.03332045  0.62504698  1
  O  O33  4  0.44773467  0.73963507  0.95705731  1
  O  O34  4  0.46326485  0.05672663  0.65298367  1
  O  O35  4  0.46960190  0.39414202  0.51712450  1
