###############################################################################################
#
# CIF file generated by modified CIFWriter class 
# in pymatgen (v2025.03.10) https://pymatgen.org/
#
###############################################################################################
data_MACE-OFF23(L)_1f3bae72040258b
_symmetry_space_group_name_H-M   Pna2_1
_cell_length_a   16.16266477
_cell_length_b   8.33423212
_cell_length_c   11.49625756
_cell_angle_alpha   90.00000000
_cell_angle_beta   90.00000000
_cell_angle_gamma   90.00000000
_symmetry_Int_Tables_number   33
_chemical_formula_moiety   'C6 H6 N12 O12'
_chemical_formula_sum   'H24 C24 N48 O48'
_cell_volume   1548.58498013
_cell_formula_units_Z   4
loop_
 _symmetry_equiv_pos_site_id
 _symmetry_equiv_pos_as_xyz
  1  'x, y, z'
  2  '-x, -y, z+1/2'
  3  '-x+1/2, y+1/2, z+1/2'
  4  'x+1/2, -y+1/2, z'
loop_
 _atom_site_type_symbol
 _atom_site_label
 _atom_site_symmetry_multiplicity
 _atom_site_fract_x
 _atom_site_fract_y
 _atom_site_fract_z
 _atom_site_occupancy
  H  H0  4  -0.01813301  0.36256685  0.52560106  1
  H  H1  4  0.07799811  0.00173947  0.73133913  1
  H  H2  4  0.09628135  0.61446201  0.77713128  1
  H  H3  4  0.11752679  0.42611908  0.45758699  1
  H  H4  4  0.15079548  0.41175293  0.89698393  1
  H  H5  4  0.21447129  0.06416195  0.66372065  1
  C  C6  4  0.02884760  0.34414966  0.59104932  1
  C  C7  4  0.08626405  0.12819538  0.71426424  1
  C  C8  4  0.09817144  0.50117052  0.73159092  1
  C  C9  4  0.11789719  0.38463198  0.54651022  1
  C  C10  4  0.13491201  0.36506230  0.81211695  1
  C  C11  4  0.17536563  0.16899176  0.66976813  1
  N  N12  4  -0.04905930  0.55762841  0.69649145  1
  N  N13  4  -0.02386219  0.06906171  0.57302259  1
  N  N14  4  0.00864613  0.23129845  0.88054965  1
  N  N15  4  0.01737356  0.45169814  0.68980538  1
  N  N16  4  0.02463201  0.17999280  0.63102090  1
  N  N17  4  0.08178892  0.22448292  0.82019459  1
  N  N18  4  0.14682818  0.51179873  0.62498815  1
  N  N19  4  0.16248512  0.66395947  0.57786140  1
  N  N20  4  0.16791460  0.24095659  0.55454279  1
  N  N21  4  0.20410199  0.27998351  0.75990364  1
  N  N22  4  0.22129154  0.85809845  0.24768448  1
  N  N23  4  0.23600722  0.22827008  0.47872104  1
  O  O24  4  -0.10412698  0.53923937  0.62761347  1
  O  O25  4  -0.06457987  0.11858245  0.49231084  1
  O  O26  4  -0.04573339  0.65351998  0.77557819  1
  O  O27  4  -0.03932407  0.12270779  0.86668649  1
  O  O28  4  -0.02183814  -0.06743855  0.60846749  1
  O  O29  4  0.00013726  0.34636067  0.94487098  1
  O  O30  4  0.15377448  0.77670382  0.64262689  1
  O  O31  4  0.16871430  0.78865914  0.19218782  1
  O  O32  4  0.18730081  0.66643394  0.47899327  1
  O  O33  4  0.21548460  0.98692218  0.29457240  1
  O  O34  4  0.21810407  0.61645931  -0.00454511  1
  O  O35  4  0.24088706  0.32627370  0.40198528  1
