###############################################################################################
#
# CIF file generated by modified CIFWriter class 
# in pymatgen (v2025.03.10) https://pymatgen.org/
#
###############################################################################################
data_MACE-OFF23(L)_2139b5335f470d7
_symmetry_space_group_name_H-M   P-1
_cell_length_a   15.31380073
_cell_length_b   10.19237665
_cell_length_c   11.03895564
_cell_angle_alpha   102.60091918
_cell_angle_beta   90.85624864
_cell_angle_gamma   100.16097983
_symmetry_Int_Tables_number   2
_chemical_formula_moiety   'C6 H6 N12 O12'
_chemical_formula_sum   'H24 C24 N48 O48'
_cell_volume   1652.56809673
_cell_formula_units_Z   4
loop_
 _symmetry_equiv_pos_site_id
 _symmetry_equiv_pos_as_xyz
  1  'x, y, z'
  2  '-x, -y, -z'
  3  'x+1/2, y+1/2, z'
  4  '-x+1/2, -y+1/2, -z'
loop_
 _atom_site_type_symbol
 _atom_site_label
 _atom_site_symmetry_multiplicity
 _atom_site_fract_x
 _atom_site_fract_y
 _atom_site_fract_z
 _atom_site_occupancy
  H  H0  4  -0.02441185  0.85558006  0.64214305  1
  H  H1  4  -0.01890096  0.90600975  0.86438336  1
  H  H2  4  0.21877673  0.78390773  0.56600066  1
  H  H3  4  0.22642195  1.01550295  0.57019866  1
  H  H4  4  0.23285470  0.86852028  0.95140181  1
  H  H5  4  0.23575931  1.10386639  0.95514155  1
  C  C6  4  0.04315561  0.88091426  0.68150197  1
  C  C7  4  0.04677334  0.91431559  0.82897356  1
  C  C8  4  0.18702120  0.83182834  0.64515957  1
  C  C9  4  0.19139972  0.98612040  0.64727425  1
  C  C10  4  0.19489438  0.88208631  0.87309666  1
  C  C11  4  0.19701615  1.03747629  0.87537126  1
  N  N12  4  0.05798847  0.67824998  0.52347662  1
  N  N13  4  0.06595119  0.69971708  0.88048374  1
  N  N14  4  0.06788535  1.10204572  0.61476523  1
  N  N15  4  0.07382179  1.16666661  0.88363002  1
  N  N16  4  0.09193519  0.77050438  0.63653823  1
  N  N17  4  0.09730870  0.99010292  0.63601417  1
  N  N18  4  0.09995865  0.83310681  0.87969618  1
  N  N19  4  0.10273058  1.04585735  0.88364619  1
  N  N20  4  0.20442105  0.31347839  0.23403908  1
  N  N21  4  0.23029686  0.79579557  0.24659955  1
  N  N22  4  0.23133319  0.82072731  0.75779342  1
  N  N23  4  0.23383840  1.06824659  0.76324523  1
  O  O24  4  -0.02135486  0.64654534  0.51065191  1
  O  O25  4  -0.01350546  0.66453817  0.85981263  1
  O  O26  4  -0.01204671  1.09858321  0.61569328  1
  O  O27  4  -0.00578485  1.16097521  0.88362762  1
  O  O28  4  0.11181660  0.63430567  0.45436671  1
  O  O29  4  0.11833495  0.63108546  0.90289292  1
  O  O30  4  0.12412502  1.19300917  0.59570195  1
  O  O31  4  0.13028285  1.26609325  0.88512857  1
  O  O32  4  0.17864799  0.29551297  0.33251638  1
  O  O33  4  0.18094257  0.24045189  0.13261731  1
  O  O34  4  0.19781564  0.80718625  0.15077173  1
  O  O35  4  0.23106284  0.87168630  0.34776016  1
