###############################################################################################
#
# CIF file generated by modified CIFWriter class 
# in pymatgen (v2025.03.10) https://pymatgen.org/
#
###############################################################################################
data_MACE-OFF23(L)_21b7c68408cbd09
_symmetry_space_group_name_H-M   P2_1/c
_cell_length_a   11.79789917
_cell_length_b   9.00060577
_cell_length_c   16.02277783
_cell_angle_alpha   90.00000000
_cell_angle_beta   79.25996478
_cell_angle_gamma   90.00000000
_symmetry_Int_Tables_number   14
_chemical_formula_moiety   'C6 H6 N12 O12'
_chemical_formula_sum   'H24 C24 N48 O48'
_cell_volume   1671.62630738
_cell_formula_units_Z   4
loop_
 _symmetry_equiv_pos_site_id
 _symmetry_equiv_pos_as_xyz
  1  'x, y, z'
  2  '-x, -y, -z'
  3  '-x, y+1/2, -z+1/2'
  4  'x, -y+1/2, z+1/2'
loop_
 _atom_site_type_symbol
 _atom_site_label
 _atom_site_symmetry_multiplicity
 _atom_site_fract_x
 _atom_site_fract_y
 _atom_site_fract_z
 _atom_site_occupancy
  H  H0  4  0.07263026  0.92130016  0.09938662  1
  H  H1  4  0.10946483  0.84930055  0.79658557  1
  H  H2  4  0.20680682  1.05588818  0.72829955  1
  H  H3  4  0.24181368  0.99817098  0.14899018  1
  H  H4  4  0.24753872  0.94329478  0.48232681  1
  H  H5  4  0.41487331  0.86737627  0.52980429  1
  C  C6  4  0.12421254  0.82829641  0.11302210  1
  C  C7  4  0.14900118  0.82336704  0.73177088  1
  C  C8  4  0.21516390  0.53834158  0.18594025  1
  C  C9  4  0.22693624  0.61075233  0.04352616  1
  C  C10  4  0.23618687  0.87859411  0.14435531  1
  C  C11  4  0.33849048  0.66192547  0.07522125  1
  N  N12  4  -0.03351037  0.83576585  0.68102877  1
  N  N13  4  0.06586447  0.75913216  0.68576262  1
  N  N14  4  0.08496952  0.76099975  0.47663998  1
  N  N15  4  0.15609137  0.73883043  0.03712694  1
  N  N16  4  0.17171504  0.50536181  0.10837153  1
  N  N17  4  0.17246425  0.35377570  0.08489266  1
  N  N18  4  0.22082729  0.80747644  0.22761198  1
  N  N19  4  0.29930997  0.67610906  0.77939968  1
  N  N20  4  0.33538753  0.82080278  0.08595654  1
  N  N21  4  0.33587976  0.92140482  0.65505546  1
  N  N22  4  0.41508075  0.45728931  0.14957207  1
  N  N23  4  0.44231432  0.60605473  0.58313580  1
  O  O24  4  -0.09025345  0.78835742  0.63133218  1
  O  O25  4  -0.05596093  0.56040058  0.22929853  1
  O  O26  4  0.03825070  0.64496950  0.46668396  1
  O  O27  4  0.07941304  0.62443816  -0.06194668  1
  O  O28  4  0.15142841  0.26668712  0.14313949  1
  O  O29  4  0.18940604  0.32653427  0.01025881  1
  O  O30  4  0.29116197  0.73834897  0.33883345  1
  O  O31  4  0.36779326  0.92434723  0.26211173  1
  O  O32  4  0.38945766  0.35863469  0.19986143  1
  O  O33  4  0.43811895  0.47290253  0.58955842  1
  O  O34  4  0.47304269  0.18377284  0.92748648  1
  O  O35  4  0.49802276  0.53050263  0.90316401  1
