###############################################################################################
#
# CIF file generated by modified CIFWriter class 
# in pymatgen (v2025.03.10) https://pymatgen.org/
#
###############################################################################################
data_MACE-OFF23(L)_222282e74daaebf
_symmetry_space_group_name_H-M   P2_1/c
_cell_length_a   13.77863873
_cell_length_b   12.28774753
_cell_length_c   13.49872359
_cell_angle_alpha   90.00000000
_cell_angle_beta   74.19370751
_cell_angle_gamma   90.00000000
_symmetry_Int_Tables_number   14
_chemical_formula_moiety   'C6 H6 N12 O12'
_chemical_formula_sum   'H24 C24 N48 O48'
_cell_volume   2199.03059679
_cell_formula_units_Z   4
loop_
 _symmetry_equiv_pos_site_id
 _symmetry_equiv_pos_as_xyz
  1  'x, y, z'
  2  '-x, -y, -z'
  3  '-x, y+1/2, -z+1/2'
  4  'x, -y+1/2, z+1/2'
loop_
 _atom_site_type_symbol
 _atom_site_label
 _atom_site_symmetry_multiplicity
 _atom_site_fract_x
 _atom_site_fract_y
 _atom_site_fract_z
 _atom_site_occupancy
  H  H0  4  -0.07392507  0.71284904  0.10565626  1
  H  H1  4  0.04095710  0.93693801  0.56812081  1
  H  H2  4  0.13684400  0.73518567  0.75962877  1
  H  H3  4  0.13739604  0.59067542  0.40974928  1
  H  H4  4  0.25251722  0.75975165  -0.12956592  1
  H  H5  4  0.25761509  0.62717078  0.64731449  1
  C  C6  4  0.00387266  0.76175928  0.59092038  1
  C  C7  4  0.07914866  0.64021990  0.06527120  1
  C  C8  4  0.12859760  0.76005633  0.18264340  1
  C  C9  4  0.13033161  0.85540151  -0.02531740  1
  C  C10  4  0.20455340  0.74344846  0.44848602  1
  C  C11  4  0.20957225  0.66669163  0.60691551  1
  N  N12  4  -0.02706679  0.81263822  -0.06475987  1
  N  N13  4  -0.02124269  0.62417263  0.72862699  1
  N  N14  4  0.02606381  0.68040924  0.50952430  1
  N  N15  4  0.02616333  0.71644928  0.68154804  1
  N  N16  4  0.12923221  0.85145891  0.64769248  1
  N  N17  4  0.14518729  0.65808973  -0.03738310  1
  N  N18  4  0.15820959  0.91199792  0.05774774  1
  N  N19  4  0.18297836  0.93269508  0.40045449  1
  N  N20  4  0.20766370  1.01392368  0.03293118  1
  N  N21  4  0.20882098  0.58228202  0.15024904  1
  N  N22  4  0.26616389  0.73352717  0.52109540  1
  N  N23  4  0.36946737  0.70839419  0.47936603  1
  O  O24  4  -0.09929380  0.90027884  0.21041769  1
  O  O25  4  -0.09291264  0.75428404  0.44769146  1
  O  O26  4  -0.00243105  0.62278518  0.36448735  1
  O  O27  4  0.01950187  0.92110785  0.28647407  1
  O  O28  4  0.13669991  1.01613525  0.42177130  1
  O  O29  4  0.19885931  0.44227848  0.45587421  1
  O  O30  4  0.22376656  0.99543673  0.59392139  1
  O  O31  4  0.24994774  0.45232201  0.59345267  1
  O  O32  4  0.25520529  0.60871028  0.21130725  1
  O  O33  4  0.25604640  0.91653122  0.32860052  1
  O  O34  4  0.40615976  0.73749857  0.39197969  1
  O  O35  4  0.41057288  0.66520659  0.53693872  1
