###############################################################################################
#
# CIF file generated by modified CIFWriter class 
# in pymatgen (v2025.03.10) https://pymatgen.org/
#
###############################################################################################
data_MACE-OFF23(L)_22728ed7e439688
_symmetry_space_group_name_H-M   Pna2_1
_cell_length_a   13.47689943
_cell_length_b   13.13664742
_cell_length_c   8.55828119
_cell_angle_alpha   90.00000000
_cell_angle_beta   90.00000000
_cell_angle_gamma   90.00000000
_symmetry_Int_Tables_number   33
_chemical_formula_moiety   'C6 H6 N12 O12'
_chemical_formula_sum   'H24 C24 N48 O48'
_cell_volume   1515.16902375
_cell_formula_units_Z   4
loop_
 _symmetry_equiv_pos_site_id
 _symmetry_equiv_pos_as_xyz
  1  'x, y, z'
  2  '-x, -y, z+1/2'
  3  '-x+1/2, y+1/2, z+1/2'
  4  'x+1/2, -y+1/2, z'
loop_
 _atom_site_type_symbol
 _atom_site_label
 _atom_site_symmetry_multiplicity
 _atom_site_fract_x
 _atom_site_fract_y
 _atom_site_fract_z
 _atom_site_occupancy
  H  H0  4  0.05268664  -0.03627227  0.73553355  1
  H  H1  4  0.10979938  0.35528863  0.21826273  1
  H  H2  4  0.12897230  0.66414868  0.16952099  1
  H  H3  4  0.13928183  -0.07018119  0.97124036  1
  H  H4  4  0.19424290  0.39169244  -0.01884561  1
  H  H5  4  0.23032903  0.20381992  0.81752008  1
  C  C6  4  0.13069838  -0.01777727  0.72615258  1
  C  C7  4  0.16297996  0.41625138  0.23122512  1
  C  C8  4  0.17324584  0.59697163  0.19081881  1
  C  C9  4  0.18806283  -0.03961705  0.88223016  1
  C  C10  4  0.21983167  0.43857414  0.07664457  1
  C  C11  4  0.23103901  0.12368012  0.78990956  1
  N  N12  4  0.06100957  0.15418535  0.69305595  1
  N  N13  4  0.06351074  0.52997046  0.39590587  1
  N  N14  4  0.11451719  0.51457234  0.25861727  1
  N  N15  4  0.11677864  -0.10772326  0.47608120  1
  N  N16  4  0.14422880  0.09160409  0.70339733  1
  N  N17  4  0.16107732  0.57771314  -0.09520692  1
  N  N18  4  0.17493854  -0.07847651  0.60296378  1
  N  N19  4  0.19082043  0.10422073  1.06783254  1
  N  N20  4  0.20062066  0.54626817  0.04628863  1
  N  N21  4  0.20708731  0.31753123  0.46344771  1
  N  N22  4  0.22794109  0.05989587  0.92983077  1
  N  N23  4  0.23355547  0.38881678  0.35090793  1
  O  O24  4  -0.00843478  0.11721661  0.62445933  1
  O  O25  4  0.02784807  -0.09492289  0.48858560  1
  O  O26  4  0.04077640  0.45427174  0.46902270  1
  O  O27  4  0.04318792  0.61674309  0.42923308  1
  O  O28  4  0.06680590  0.23827394  0.74850708  1
  O  O29  4  0.14109136  0.66696011  -0.10640380  1
  O  O30  4  0.14457371  0.25625191  0.42676307  1
  O  O31  4  0.15427953  0.51363579  -0.19640650  1
  O  O32  4  0.15625642  0.04705277  1.16335223  1
  O  O33  4  0.15923679  -0.14608937  0.36740474  1
  O  O34  4  0.20226740  0.19507229  1.08004038  1
  O  O35  4  0.24852687  -0.17828483  1.08594186  1
