###############################################################################################
#
# CIF file generated by modified CIFWriter class 
# in pymatgen (v2025.03.10) https://pymatgen.org/
#
###############################################################################################
data_MACE-OFF23(L)_249ab69b9e81d13
_symmetry_space_group_name_H-M   Pna2_1
_cell_length_a   13.90355902
_cell_length_b   12.39305550
_cell_length_c   9.09974797
_cell_angle_alpha   90.00000000
_cell_angle_beta   90.00000000
_cell_angle_gamma   90.00000000
_symmetry_Int_Tables_number   33
_chemical_formula_moiety   'C6 H6 N12 O12'
_chemical_formula_sum   'H24 C24 N48 O48'
_cell_volume   1567.95553812
_cell_formula_units_Z   4
loop_
 _symmetry_equiv_pos_site_id
 _symmetry_equiv_pos_as_xyz
  1  'x, y, z'
  2  '-x, -y, z+1/2'
  3  '-x+1/2, y+1/2, z+1/2'
  4  'x+1/2, -y+1/2, z'
loop_
 _atom_site_type_symbol
 _atom_site_label
 _atom_site_symmetry_multiplicity
 _atom_site_fract_x
 _atom_site_fract_y
 _atom_site_fract_z
 _atom_site_occupancy
  H  H0  4  -0.12634432  0.72646894  0.81942626  1
  H  H1  4  -0.03442851  0.62565264  0.99469029  1
  H  H2  4  0.06267103  0.78484327  0.49667850  1
  H  H3  4  0.07143276  0.93761994  0.65765202  1
  H  H4  4  0.22675795  0.60960080  0.79254714  1
  H  H5  4  0.22995212  0.76120411  0.95833065  1
  C  C6  4  -0.05024811  0.73660827  0.80248389  1
  C  C7  4  0.01071890  0.66818526  0.91713972  1
  C  C8  4  0.06465952  0.76235098  0.61163151  1
  C  C9  4  0.06925562  0.86216986  0.71738836  1
  C  C10  4  0.16152651  0.65681187  0.78890522  1
  C  C11  4  0.16423805  0.75604117  0.89529103  1
  N  N12  4  -0.09188235  0.67464578  0.55494510  1
  N  N13  4  -0.05248819  0.92437061  0.89620085  1
  N  N14  4  -0.02319600  0.70632847  0.65540605  1
  N  N15  4  -0.02101429  0.84931782  0.79742658  1
  N  N16  4  0.04455844  0.51217687  0.75941382  1
  N  N17  4  0.06091551  0.80016814  1.10668749  1
  N  N18  4  0.07911617  0.59575778  0.84550522  1
  N  N19  4  0.08273416  0.73330225  0.99056668  1
  N  N20  4  0.14537780  0.69169172  0.63918256  1
  N  N21  4  0.15316693  0.85344847  0.80982670  1
  N  N22  4  0.21146040  0.94333627  0.83506991  1
  N  N23  4  0.21621710  0.67776078  0.53438904  1
  O  O24  4  -0.16576797  0.63895915  0.60610366  1
  O  O25  4  -0.12717851  0.90446827  0.95978247  1
  O  O26  4  -0.06987707  0.67960255  0.42738481  1
  O  O27  4  -0.03796659  0.48587078  0.77958059  1
  O  O28  4  -0.01398971  0.78311994  1.16941209  1
  O  O29  4  -0.00290626  1.00416259  0.91089771  1
  O  O30  4  0.10157609  0.47304600  0.67429112  1
  O  O31  4  0.11992697  0.86942632  1.13382444  1
  O  O32  4  0.19415737  1.02235577  0.76380878  1
  O  O33  4  0.19880862  0.71042547  0.41292832  1
  O  O34  4  0.21045992  0.13332329  0.07538551  1
  O  O35  4  0.22462271  0.43152617  0.42438163  1
