###############################################################################################
#
# CIF file generated by modified CIFWriter class 
# in pymatgen (v2025.03.10) https://pymatgen.org/
#
###############################################################################################
data_MACE-OFF23(L)_24d1b6094f01060
_symmetry_space_group_name_H-M   Pcc2
_cell_length_a   12.94966408
_cell_length_b   13.14276577
_cell_length_c   10.32166453
_cell_angle_alpha   90.00000000
_cell_angle_beta   90.00000000
_cell_angle_gamma   90.00000000
_symmetry_Int_Tables_number   27
_chemical_formula_moiety   'C6 H6 N12 O12'
_chemical_formula_sum   'H24 C24 N48 O48'
_cell_volume   1756.68952026
_cell_formula_units_Z   4
loop_
 _symmetry_equiv_pos_site_id
 _symmetry_equiv_pos_as_xyz
  1  'x, y, z'
  2  '-x, -y, z'
  3  '-x, y, z+1/2'
  4  'x, -y, z+1/2'
loop_
 _atom_site_type_symbol
 _atom_site_label
 _atom_site_symmetry_multiplicity
 _atom_site_fract_x
 _atom_site_fract_y
 _atom_site_fract_z
 _atom_site_occupancy
  H  H0  4  0.04659140  0.35644577  -0.07727458  1
  H  H1  4  0.19385672  0.38626460  -0.20833041  1
  H  H2  4  0.19784307  0.11541853  0.09901418  1
  H  H3  4  0.26331926  0.49350415  0.14974800  1
  H  H4  4  0.34554389  0.14646212  -0.03459098  1
  H  H5  4  0.34689775  0.35639645  0.24753852  1
  C  C6  4  0.11771648  0.33786583  -0.02777339  1
  C  C7  4  0.20794984  0.19527468  0.07706599  1
  C  C8  4  0.21502917  0.35797408  -0.11389206  1
  C  C9  4  0.24677090  0.42368174  0.09880358  1
  C  C10  4  0.30392274  0.33074865  0.16403110  1
  C  C11  4  0.30480985  0.21556788  -0.01006598  1
  N  N12  4  0.02240004  0.18260497  0.02860470  1
  N  N13  4  0.07322495  0.40392285  0.18821887  1
  N  N14  4  0.11824447  0.23133533  0.00756002  1
  N  N15  4  0.13637394  0.40643420  0.08233992  1
  N  N16  4  0.22827643  0.25220665  0.19688245  1
  N  N17  4  0.25274292  0.19316428  0.30924329  1
  N  N18  4  0.25731931  0.20599645  -0.23731262  1
  N  N19  4  0.26905516  0.43305626  -0.03786785  1
  N  N20  4  0.27774003  0.26714227  -0.12907852  1
  N  N21  4  0.35535177  0.48207844  -0.08296088  1
  N  N22  4  0.37037462  0.28170156  0.06872472  1
  N  N23  4  0.46375444  0.23802523  0.11619262  1
  O  O24  4  -0.04771348  0.21191916  -0.03818350  1
  O  O25  4  -0.01289449  0.37000365  0.17118878  1
  O  O26  4  0.02179319  0.11476747  0.10687615  1
  O  O27  4  0.10755606  0.43874463  0.28815520  1
  O  O28  4  0.21180922  0.24681323  -0.32514265  1
  O  O29  4  0.22481130  0.10594924  0.30820971  1
  O  O30  4  0.28858539  0.11950840  -0.23332211  1
  O  O31  4  0.29588121  0.23862463  0.39445416  1
  O  O32  4  0.37696544  0.46624932  -0.19570253  1
  O  O33  4  0.39875483  0.46254673  0.49266127  1
  O  O34  4  0.49652455  0.16604650  0.05704689  1
  O  O35  4  0.49727433  0.27998865  0.70749743  1
