###############################################################################################
#
# CIF file generated by modified CIFWriter class 
# in pymatgen (v2025.03.10) https://pymatgen.org/
#
###############################################################################################
data_MACE-OFF23(L)_2d309be35dfb5b0
_symmetry_space_group_name_H-M   P-1
_cell_length_a   10.38216673
_cell_length_b   11.24179398
_cell_length_c   13.71349203
_cell_angle_alpha   90.88196469
_cell_angle_beta   92.02520903
_cell_angle_gamma   90.06135795
_symmetry_Int_Tables_number   2
_chemical_formula_moiety   'C6 H6 N12 O12'
_chemical_formula_sum   'H24 C24 N48 O48'
_cell_volume   1599.36762876
_cell_formula_units_Z   4
loop_
 _symmetry_equiv_pos_site_id
 _symmetry_equiv_pos_as_xyz
  1  'x, y, z'
  2  '-x, -y, -z'
loop_
 _atom_site_type_symbol
 _atom_site_label
 _atom_site_symmetry_multiplicity
 _atom_site_fract_x
 _atom_site_fract_y
 _atom_site_fract_z
 _atom_site_occupancy
  H  H0  2  -0.00152966  0.20636010  0.45279490  1
  H  H1  2  0.07173594  0.90109501  0.91726299  1
  H  H2  2  0.08511801  0.56723135  1.01445533  1
  H  H3  2  0.11596120  0.07634000  0.34984591  1
  H  H4  2  0.19326843  0.56236552  0.86560707  1
  H  H5  2  0.23482704  0.48871880  0.48324465  1
  H  H6  2  0.25821197  0.98967233  0.99396917  1
  H  H7  2  0.27841835  0.36116376  0.61992517  1
  H  H8  2  0.40962319  0.71531787  1.15169188  1
  H  H9  2  0.44574060  0.26350092  0.30933570  1
  H  H10  2  0.48551977  0.27922679  0.00149625  1
  H  H11  2  0.48687956  0.13520599  0.44411814  1
  C  C12  2  0.09911680  0.23061908  0.45258123  1
  C  C13  2  0.13871423  0.83492973  0.94411590  1
  C  C14  2  0.14974127  0.64158979  1.00874619  1
  C  C15  2  0.17731934  0.14353877  0.38465744  1
  C  C16  2  0.21938568  0.63948530  0.91006638  1
  C  C17  2  0.24138216  0.39571536  0.46237853  1
  C  C18  2  0.26247535  0.89386019  0.99567528  1
  C  C19  2  0.26944233  0.31258294  0.55120924  1
  C  C20  2  0.34270443  0.73047575  1.09079405  1
  C  C21  2  0.36637854  0.26059562  0.35808797  1
  C  C22  2  0.39407574  0.17822664  0.44698126  1
  C  C23  2  0.41111539  0.73197204  0.99032614  1
  N  N24  2  -0.05784722  0.74809368  1.00508892  1
  N  N25  2  0.01794463  0.42693321  0.40107139  1
  N  N26  2  0.07796944  0.75457340  1.01099574  1
  N  N27  2  0.07866165  0.23361913  0.63122116  1
  N  N28  2  0.11939111  0.35192346  0.42144400  1
  N  N29  2  0.15846944  0.23182004  0.55028640  1
  N  N30  2  0.17191728  0.74976046  0.86795939  1
  N  N31  2  0.19234961  0.25644145  0.23294308  1
  N  N32  2  0.21204939  0.58277773  1.17362029  1
  N  N33  2  0.22105233  0.89251171  1.17075858  1
  N  N34  2  0.22162498  0.79029073  0.78290280  1
  N  N35  2  0.24587639  0.63688188  1.08695262  1
  N  N36  2  0.25208805  0.20519004  0.31322433  1
  N  N37  2  0.26810747  0.01163699  0.50837057  1
  N  N38  2  0.28873707  0.09097797  0.43496131  1
  N  N39  2  0.28873880  0.85054944  1.09331100  1
  N  N40  2  0.33862289  0.38194339  0.38959513  1
  N  N41  2  0.35799592  0.64090354  0.92529229  1
  N  N42  2  0.37626212  0.84768272  0.95024712  1
  N  N43  2  0.38862802  0.25057815  0.53490117  1
  N  N44  2  0.43079114  0.54362532  0.89895964  1
  N  N45  2  0.43582059  0.46604409  0.38815409  1
  N  N46  2  0.46545824  0.92125541  0.91098012  1
  N  N47  2  0.46889003  0.22118953  0.61575764  1
  O  O48  2  -0.11306109  0.84024426  0.98872097  1
  O  O49  2  -0.10614167  0.65337175  1.02215578  1
  O  O50  2  -0.08479033  0.38068845  0.38154892  1
  O  O51  2  -0.02964473  0.19870355  0.61613258  1
  O  O52  2  0.04090219  0.53310309  0.40198251  1
  O  O53  2  0.07806840  0.23582624  0.22095050  1
  O  O54  2  0.10588755  0.53791329  1.17458475  1
  O  O55  2  0.13003437  0.26480149  0.70753714  1
  O  O56  2  0.16032538  0.98323818  1.15690067  1
  O  O57  2  0.16318811  -0.03446422  0.50754654  1
  O  O58  2  0.19938425  0.89336561  0.76401326  1
  O  O59  2  0.23168858  0.83772359  1.24550521  1
  O  O60  2  0.25949296  0.31414006  0.18157460  1
  O  O61  2  0.28133983  0.71906159  0.73555914  1
  O  O62  2  0.29300374  0.58165090  1.23867232  1
  O  O63  2  0.35772185  -0.00493403  0.56544060  1
  O  O64  2  0.37374167  0.45810839  0.86508763  1
  O  O65  2  0.41729448  0.55925299  0.43102197  1
  O  O66  2  0.43197263  0.12270849  0.10837394  1
  O  O67  2  0.43227864  1.02313673  0.89630579  1
  O  O68  2  0.43417004  0.83239895  0.40150936  1
  O  O69  2  0.43454038  0.25609617  0.69427412  1
  O  O70  2  0.45331211  0.44630795  0.08919246  1
  O  O71  2  0.47008678  0.55873121  0.65711763  1
