###############################################################################################
#
# CIF file generated by modified CIFWriter class 
# in pymatgen (v2025.03.10) https://pymatgen.org/
#
###############################################################################################
data_MACE-OFF23(L)_33d050922344203
_symmetry_space_group_name_H-M   P2_1/c
_cell_length_a   15.35648425
_cell_length_b   13.45982481
_cell_length_c   8.11407560
_cell_angle_alpha   90.00000000
_cell_angle_beta   95.19687061
_cell_angle_gamma   90.00000000
_symmetry_Int_Tables_number   14
_chemical_formula_moiety   'C6 H6 N12 O12'
_chemical_formula_sum   'H24 C24 N48 O48'
_cell_volume   1670.24946923
_cell_formula_units_Z   4
loop_
 _symmetry_equiv_pos_site_id
 _symmetry_equiv_pos_as_xyz
  1  'x, y, z'
  2  '-x, -y, -z'
  3  '-x, y+1/2, -z+1/2'
  4  'x, -y+1/2, z+1/2'
loop_
 _atom_site_type_symbol
 _atom_site_label
 _atom_site_symmetry_multiplicity
 _atom_site_fract_x
 _atom_site_fract_y
 _atom_site_fract_z
 _atom_site_occupancy
  H  H0  4  0.13875200  0.35210905  -0.00348434  1
  H  H1  4  0.17461771  1.06095988  0.25287989  1
  H  H2  4  0.17588883  0.89093690  0.77373253  1
  H  H3  4  0.20307883  0.69799805  0.02921246  1
  H  H4  4  0.40229081  1.10710742  0.52489067  1
  H  H5  4  0.42142802  0.53929241  0.18566982  1
  C  C6  4  0.18661018  0.41005043  0.02296286  1
  C  C7  4  0.20845179  1.03201516  0.36542535  1
  C  C8  4  0.20848485  0.56396462  0.18777804  1
  C  C9  4  0.22744931  0.62271993  0.02829150  1
  C  C10  4  0.34156869  1.06692431  0.52811164  1
  C  C11  4  0.35453556  0.96874920  0.63349936  1
  N  N12  4  0.06694379  0.47938985  0.16706554  1
  N  N13  4  0.14274076  0.62356705  -0.24575329  1
  N  N14  4  0.15567917  1.02337518  0.64634160  1
  N  N15  4  0.18612444  0.57121568  -0.11468457  1
  N  N16  4  0.27156662  0.37014029  0.07892915  1
  N  N17  4  0.28169669  0.31378912  0.22014661  1
  N  N18  4  0.29434388  0.53144480  0.26171576  1
  N  N19  4  0.30353202  1.04175140  0.36285270  1
  N  N20  4  0.32302903  0.61941820  0.04222788  1
  N  N21  4  0.32559157  0.57238819  0.41570127  1
  N  N22  4  0.33836979  1.08560215  0.22718751  1
  N  N23  4  0.36897052  0.84444341  0.41774147  1
  O  O24  4  0.02327461  0.41050565  0.10835327  1
  O  O25  4  0.04099977  0.54796718  0.24410903  1
  O  O26  4  0.11309080  0.57554745  -0.36248576  1
  O  O27  4  0.13696555  0.78751731  0.27264555  1
  O  O28  4  0.21530212  0.27939870  0.26759798  1
  O  O29  4  0.27150312  0.89281300  0.99830702  1
  O  O30  4  0.28797652  0.39852260  -0.39370968  1
  O  O31  4  0.33245590  0.71609281  -0.17431352  1
  O  O32  4  0.35560314  0.30093380  0.28032835  1
  O  O33  4  0.40271974  0.56421752  0.45381097  1
  O  O34  4  0.41599938  1.09871234  0.24189460  1
  O  O35  4  0.44265169  0.62409026  -0.08593681  1
