###############################################################################################
#
# CIF file generated by modified CIFWriter class 
# in pymatgen (v2025.03.10) https://pymatgen.org/
#
###############################################################################################
data_MACE-OFF23(L)_35751f404ffb262
_symmetry_space_group_name_H-M   P2_1/c
_cell_length_a   8.57439406
_cell_length_b   14.22354207
_cell_length_c   15.32672798
_cell_angle_alpha   90.00000000
_cell_angle_beta   124.49900411
_cell_angle_gamma   90.00000000
_symmetry_Int_Tables_number   14
_chemical_formula_moiety   'C6 H6 N12 O12'
_chemical_formula_sum   'H24 C24 N48 O48'
_cell_volume   1540.49237423
_cell_formula_units_Z   4
loop_
 _symmetry_equiv_pos_site_id
 _symmetry_equiv_pos_as_xyz
  1  'x, y, z'
  2  '-x, -y, -z'
  3  '-x, y+1/2, -z+1/2'
  4  'x, -y+1/2, z+1/2'
loop_
 _atom_site_type_symbol
 _atom_site_label
 _atom_site_symmetry_multiplicity
 _atom_site_fract_x
 _atom_site_fract_y
 _atom_site_fract_z
 _atom_site_occupancy
  H  H0  4  -0.09186048  0.78843567  0.62411506  1
  H  H1  4  0.15698366  0.44818911  0.20119027  1
  H  H2  4  0.18736097  0.77732671  0.15007951  1
  H  H3  4  0.29483604  0.73581173  0.43809736  1
  H  H4  4  0.42928683  0.58661335  0.48327123  1
  H  H5  4  0.43836333  0.51389196  0.22878327  1
  C  C6  4  0.03546759  0.67652932  0.18642493  1
  C  C7  4  0.18338487  0.51910615  0.23205203  1
  C  C8  4  0.21852806  0.71870731  0.20250009  1
  C  C9  4  0.26357797  0.69928297  0.36819239  1
  C  C10  4  0.35755679  0.59860926  0.39934321  1
  C  C11  4  0.36698426  0.56261970  0.24919222  1
  N  N12  4  -0.10667157  0.95050629  0.55687663  1
  N  N13  4  -0.05762239  0.74411271  0.79289255  1
  N  N14  4  0.01773875  0.57698690  0.16225139  1
  N  N15  4  0.06100234  0.68948556  0.28863945  1
  N  N16  4  0.10266581  0.48944725  0.35997554  1
  N  N17  4  0.22860398  0.52201150  0.33864933  1
  N  N18  4  0.31213108  0.64554854  0.18321041  1
  N  N19  4  0.33127299  0.74963380  0.31320280  1
  N  N20  4  0.35284318  0.13197688  0.08909448  1
  N  N21  4  0.37449310  0.84600766  0.33388544  1
  N  N22  4  0.41470054  0.67056403  0.14030750  1
  N  N23  4  0.48087854  0.58160407  0.36399684  1
  O  O24  4  -0.20610178  0.77302759  0.21054040  1
  O  O25  4  -0.20364728  0.61025331  -0.00588851  1
  O  O26  4  -0.10945010  1.03320554  0.53811435  1
  O  O27  4  -0.01527381  1.06538196  0.79658004  1
  O  O28  4  -0.00210558  0.71343819  0.87897016  1
  O  O29  4  0.12665067  0.51651677  0.44137980  1
  O  O30  4  0.27679158  0.13457761  0.13517219  1
  O  O31  4  0.29871970  0.16694149  0.00412716  1
  O  O32  4  0.38427440  0.87821950  0.40921816  1
  O  O33  4  0.38766831  0.74960365  0.10527728  1
  O  O34  4  0.40434931  0.88465419  0.27457459  1
  O  O35  4  0.48716207  0.11129424  0.36080130  1
