###############################################################################################
#
# CIF file generated by modified CIFWriter class 
# in pymatgen (v2025.03.10) https://pymatgen.org/
#
###############################################################################################
data_MACE-OFF23(L)_3832903d53118c8
_symmetry_space_group_name_H-M   P2_1/c
_cell_length_a   24.77850248
_cell_length_b   7.99862077
_cell_length_c   8.04219872
_cell_angle_alpha   90.00000000
_cell_angle_beta   88.43658407
_cell_angle_gamma   90.00000000
_symmetry_Int_Tables_number   14
_chemical_formula_moiety   'C6 H6 N12 O12'
_chemical_formula_sum   'H24 C24 N48 O48'
_cell_volume   1593.32093200
_cell_formula_units_Z   4
loop_
 _symmetry_equiv_pos_site_id
 _symmetry_equiv_pos_as_xyz
  1  'x, y, z'
  2  '-x, -y, -z'
  3  '-x+1/2, y+1/2, -z+1/2'
  4  'x+1/2, -y+1/2, z+1/2'
loop_
 _atom_site_type_symbol
 _atom_site_label
 _atom_site_symmetry_multiplicity
 _atom_site_fract_x
 _atom_site_fract_y
 _atom_site_fract_z
 _atom_site_occupancy
  H  H0  4  0.03277114  0.05245692  1.04566818  1
  H  H1  4  0.05125620  0.19921649  1.29079602  1
  H  H2  4  0.07983443  0.51182458  0.89744091  1
  H  H3  4  0.17435247  0.47344525  0.84219494  1
  H  H4  4  0.19751322  -0.00956123  0.95441115  1
  H  H5  4  0.21454661  0.14176604  1.20037768  1
  C  C6  4  0.06991250  0.12109273  1.03095961  1
  C  C7  4  0.08132132  0.22185644  1.19336622  1
  C  C8  4  0.09472989  0.39984409  0.95623374  1
  C  C9  4  0.15759388  0.37455980  0.91981002  1
  C  C10  4  0.16716728  0.08496068  0.97973704  1
  C  C11  4  0.17895270  0.18567826  1.13975265  1
  N  N12  4  0.02831599  0.25320248  0.78377194  1
  N  N13  4  0.06653635  0.25106792  0.90444553  1
  N  N14  4  0.07944655  0.39257466  1.13264373  1
  N  N15  4  0.08738884  0.52334078  1.24168898  1
  N  N16  4  0.10464981  -0.12977490  0.89464077  1
  N  N17  4  0.11457771  0.00614105  1.00028383  1
  N  N18  4  0.13382383  0.18316122  1.25709903  1
  N  N19  4  0.13717978  0.08674331  1.40028770  1
  N  N20  4  0.16702500  0.20966148  0.84552101  1
  N  N21  4  0.18759971  0.35189398  1.07096385  1
  N  N22  4  0.20217704  0.48170132  1.17143653  1
  N  N23  4  0.20806592  0.19817815  0.72162112  1
  O  O24  4  0.00379897  0.12411625  0.76447334  1
  O  O25  4  0.02442362  0.38097122  0.70492590  1
  O  O26  4  0.05800831  -0.17149934  0.88106339  1
  O  O27  4  0.08712165  0.48829723  1.38706969  1
  O  O28  4  0.09295145  0.66015450  1.17890998  1
  O  O29  4  0.09888209  0.09294389  1.49692566  1
  O  O30  4  0.14332277  -0.19738119  0.83052545  1
  O  O31  4  0.17826715  0.00804333  1.41741823  1
  O  O32  4  0.20180125  0.62048674  1.11231014  1
  O  O33  4  0.20986743  0.31014882  0.62195849  1
  O  O34  4  0.21517432  0.44277481  1.31068300  1
  O  O35  4  0.23556383  0.07362634  0.72342611  1
