###############################################################################################
#
# CIF file generated by modified CIFWriter class 
# in pymatgen (v2025.03.10) https://pymatgen.org/
#
###############################################################################################
data_MACE-OFF23(L)_3f235e14641835f
_symmetry_space_group_name_H-M   P2_1/c
_cell_length_a   12.62936726
_cell_length_b   14.87682685
_cell_length_c   8.34483662
_cell_angle_alpha   90.00000000
_cell_angle_beta   88.54180910
_cell_angle_gamma   90.00000000
_symmetry_Int_Tables_number   14
_chemical_formula_moiety   'C6 H6 N12 O12'
_chemical_formula_sum   'H24 C24 N48 O48'
_cell_volume   1567.36113857
_cell_formula_units_Z   4
loop_
 _symmetry_equiv_pos_site_id
 _symmetry_equiv_pos_as_xyz
  1  'x, y, z'
  2  '-x, -y, -z'
  3  '-x+1/2, y+1/2, -z+1/2'
  4  'x+1/2, -y+1/2, z+1/2'
loop_
 _atom_site_type_symbol
 _atom_site_label
 _atom_site_symmetry_multiplicity
 _atom_site_fract_x
 _atom_site_fract_y
 _atom_site_fract_z
 _atom_site_occupancy
  H  H0  4  0.00218682  0.93455920  0.85224593  1
  H  H1  4  0.01413335  0.89782189  1.12895908  1
  H  H2  4  0.10083629  0.46314882  0.54681084  1
  H  H3  4  0.23965806  0.56581324  0.47800590  1
  H  H4  4  0.24084006  0.22210022  0.47457242  1
  H  H5  4  0.24709295  0.75960397  0.74561687  1
  C  C6  4  0.08255107  0.92037422  0.88575920  1
  C  C7  4  0.09035257  0.89606447  1.06766598  1
  C  C8  4  0.17748469  0.43104990  0.54759304  1
  C  C9  4  0.22734426  0.81568536  0.82347140  1
  C  C10  4  0.22999982  0.99946472  0.99663643  1
  C  C11  4  0.23576147  0.79121037  1.00648202  1
  N  N12  4  0.07235186  0.82104141  0.65064336  1
  N  N13  4  0.09087129  0.74852255  1.19920264  1
  N  N14  4  0.11084493  0.33494244  0.32751771  1
  N  N15  4  0.12080163  0.38656789  0.82174816  1
  N  N16  4  0.12087337  0.84506112  0.79305520  1
  N  N17  4  0.13324390  0.80702406  1.08326802  1
  N  N18  4  0.14831228  1.00201034  0.87647440  1
  N  N19  4  0.15946992  0.96773729  1.12576246  1
  N  N20  4  0.17182739  1.04157587  0.72957019  1
  N  N21  4  0.18445229  0.35425987  0.44181544  1
  N  N22  4  0.19871175  0.39010225  0.70055890  1
  N  N23  4  0.20000597  0.96030959  1.27886990  1
  O  O24  4  -0.00800732  0.86015734  0.61976583  1
  O  O25  4  0.00422845  0.76807271  1.25453763  1
  O  O26  4  0.03708108  0.38608297  0.31893745  1
  O  O27  4  0.04755162  0.43734033  0.80837204  1
  O  O28  4  0.10993554  1.02803047  0.62458616  1
  O  O29  4  0.11429258  0.76084961  0.57522795  1
  O  O30  4  0.13030246  0.26977779  0.24555770  1
  O  O31  4  0.13859334  0.33556277  0.93047831  1
  O  O32  4  0.14255583  0.68318007  1.22902645  1
  O  O33  4  0.15091970  0.91238181  1.37089493  1
  O  O34  4  0.22183433  0.50422106  0.19587113  1
  O  O35  4  0.24993880  1.08916300  0.72445756  1
