###############################################################################################
#
# CIF file generated by modified CIFWriter class 
# in pymatgen (v2025.03.10) https://pymatgen.org/
#
###############################################################################################
data_MACE-OFF23(L)_3fb7f29024f0b1e
_symmetry_space_group_name_H-M   P-4
_cell_length_a   16.47483912
_cell_length_b   16.47483912
_cell_length_c   7.62189358
_cell_angle_alpha   90.00000000
_cell_angle_beta   90.00000000
_cell_angle_gamma   90.00000000
_symmetry_Int_Tables_number   81
_chemical_formula_moiety   'C6 H6 N12 O12'
_chemical_formula_sum   'H24 C24 N48 O48'
_cell_volume   2068.73682527
_cell_formula_units_Z   4
loop_
 _symmetry_equiv_pos_site_id
 _symmetry_equiv_pos_as_xyz
  1  'x, y, z'
  2  'y, -x, -z'
  3  '-x, -y, z'
  4  '-y, x, -z'
loop_
 _atom_site_type_symbol
 _atom_site_label
 _atom_site_symmetry_multiplicity
 _atom_site_fract_x
 _atom_site_fract_y
 _atom_site_fract_z
 _atom_site_occupancy
  H  H0  4  0.05768474  0.45467906  0.23568174  1
  H  H1  4  0.15182053  0.56370385  0.25635646  1
  H  H2  4  0.18546939  0.41976049  0.67657521  1
  H  H3  4  0.24121047  0.30377465  0.06357992  1
  H  H4  4  0.28950395  0.33178587  0.58294200  1
  H  H5  4  0.33755466  0.40965227  0.09517541  1
  C  C6  4  0.11758555  0.43389723  0.27139773  1
  C  C7  4  0.17957119  0.50581560  0.28556698  1
  C  C8  4  0.19122088  0.42039352  0.53568374  1
  C  C9  4  0.22600934  0.34415910  0.17043020  1
  C  C10  4  0.26082816  0.36163649  0.47301182  1
  C  C11  4  0.28870202  0.41499496  0.18952630  1
  N  N12  4  0.04422013  0.41254550  0.54783864  1
  N  N13  4  0.08888268  0.33143900  0.04587342  1
  N  N14  4  0.11507890  0.39829703  0.44970300  1
  N  N15  4  0.14608559  0.37792589  0.14067403  1
  N  N16  4  0.18382902  0.24113191  0.38767754  1
  N  N17  4  0.20447729  0.50135391  0.46800997  1
  N  N18  4  0.21114842  0.56827518  0.57493031  1
  N  N19  4  0.23486731  0.30402994  0.34055825  1
  N  N20  4  0.24602578  0.49130149  0.16378114  1
  N  N21  4  0.29319139  0.55914822  0.11407729  1
  N  N22  4  0.31895466  0.40671499  0.36909085  1
  N  N23  4  0.39975928  0.59855521  0.59708935  1
  O  O24  4  -0.01905204  0.41343403  0.46606187  1
  O  O25  4  0.01852666  0.34312145  0.08115765  1
  O  O26  4  0.05171389  0.41982172  0.70365977  1
  O  O27  4  0.11651702  0.28723014  -0.06429093  1
  O  O28  4  0.15237168  0.20449708  0.26829330  1
  O  O29  4  0.17785290  0.22830781  0.54324803  1
  O  O30  4  0.20313178  0.63358740  0.50532506  1
  O  O31  4  0.22679525  0.55497217  0.72748694  1
  O  O32  4  0.26046566  0.62461637  0.12644930  1
  O  O33  4  0.35995617  0.54533917  0.05843742  1
  O  O34  4  0.37781368  0.58047663  0.44974666  1
  O  O35  4  0.41935437  0.55306255  0.71243794  1
