###############################################################################################
#
# CIF file generated by modified CIFWriter class 
# in pymatgen (v2025.03.10) https://pymatgen.org/
#
###############################################################################################
data_MACE-OFF23(L)_411aec1bd1bdaf8
_symmetry_space_group_name_H-M   P2_1/c
_cell_length_a   9.05988703
_cell_length_b   8.75410205
_cell_length_c   21.28979186
_cell_angle_alpha   90.00000000
_cell_angle_beta   81.07459676
_cell_angle_gamma   90.00000000
_symmetry_Int_Tables_number   14
_chemical_formula_moiety   'C6 H6 N12 O12'
_chemical_formula_sum   'H24 C24 N48 O48'
_cell_volume   1668.07244566
_cell_formula_units_Z   4
loop_
 _symmetry_equiv_pos_site_id
 _symmetry_equiv_pos_as_xyz
  1  'x, y, z'
  2  '-x, -y, -z'
  3  '-x, y+1/2, -z+1/2'
  4  'x, -y+1/2, z+1/2'
loop_
 _atom_site_type_symbol
 _atom_site_label
 _atom_site_symmetry_multiplicity
 _atom_site_fract_x
 _atom_site_fract_y
 _atom_site_fract_z
 _atom_site_occupancy
  H  H0  4  -0.06791918  0.97180297  0.67983748  1
  H  H1  4  0.10123841  0.32552297  0.15674126  1
  H  H2  4  0.14259155  0.88239882  0.07881513  1
  H  H3  4  0.20381708  0.89603132  0.18391327  1
  H  H4  4  0.43629384  0.97968957  0.53996444  1
  H  H5  4  0.49791228  0.53447893  0.14228014  1
  C  C6  4  0.04223488  0.56942107  0.16030762  1
  C  C7  4  0.15596229  0.43312122  0.14471147  1
  C  C8  4  0.16771272  0.77176864  0.09703671  1
  C  C9  4  0.20918266  0.78089492  0.16553823  1
  C  C10  4  0.34080677  0.55612792  0.07293778  1
  C  C11  4  0.38265072  0.56541728  0.14150000  1
  N  N12  4  -0.03529209  0.86869780  0.55764956  1
  N  N13  4  0.03720760  0.67173218  0.10713247  1
  N  N14  4  0.09330713  0.84379732  0.76405856  1
  N  N15  4  0.09484484  0.68411944  0.20083591  1
  N  N16  4  0.22220760  0.43946204  0.07779952  1
  N  N17  4  0.26569893  0.29674622  0.04874819  1
  N  N18  4  0.28211903  0.45722365  0.17838374  1
  N  N19  4  0.29398861  0.70548081  0.05546931  1
  N  N20  4  0.31270434  0.74386053  -0.00971220  1
  N  N21  4  0.34266367  0.32800665  0.20471407  1
  N  N22  4  0.35622125  0.71683832  0.16856702  1
  N  N23  4  0.47751687  0.81832452  0.15984075  1
  O  O24  4  -0.11742376  0.97794373  0.56583464  1
  O  O25  4  -0.01309757  0.78691508  0.51114997  1
  O  O26  4  0.02810863  0.54212460  0.28530820  1
  O  O27  4  0.15345126  0.74928178  0.79312640  1
  O  O28  4  0.21715734  0.18353542  0.07673556  1
  O  O29  4  0.25432171  0.22877353  0.22302416  1
  O  O30  4  0.26868777  0.86750085  -0.02235437  1
  O  O31  4  0.34324339  1.19584068  0.49750254  1
  O  O32  4  0.37646061  0.65105682  -0.04635264  1
  O  O33  4  0.39943040  0.26184462  0.35029661  1
  O  O34  4  0.44773654  0.95239488  0.16523977  1
  O  O35  4  0.47375327  1.16779320  0.70863529  1
