###############################################################################################
#
# CIF file generated by modified CIFWriter class 
# in pymatgen (v2025.03.10) https://pymatgen.org/
#
###############################################################################################
data_MACE-OFF23(L)_42f11281ab70016
_symmetry_space_group_name_H-M   Pnn2
_cell_length_a   18.72509154
_cell_length_b   12.97106285
_cell_length_c   7.44341170
_cell_angle_alpha   90.00000000
_cell_angle_beta   90.00000000
_cell_angle_gamma   90.00000000
_symmetry_Int_Tables_number   34
_chemical_formula_moiety   'C6 H6 N12 O12'
_chemical_formula_sum   'H24 C24 N48 O48'
_cell_volume   1807.88813185
_cell_formula_units_Z   4
loop_
 _symmetry_equiv_pos_site_id
 _symmetry_equiv_pos_as_xyz
  1  'x, y, z'
  2  '-x, -y, z'
  3  'x+1/2, -y+1/2, z+1/2'
  4  '-x+1/2, y+1/2, z+1/2'
loop_
 _atom_site_type_symbol
 _atom_site_label
 _atom_site_symmetry_multiplicity
 _atom_site_fract_x
 _atom_site_fract_y
 _atom_site_fract_z
 _atom_site_occupancy
  H  H0  4  0.09713128  0.14918431  0.68860740  1
  H  H1  4  0.10980756  0.45575740  0.74640967  1
  H  H2  4  0.17486003  0.73962459  0.43098985  1
  H  H3  4  0.18906925  0.47585281  0.98707970  1
  H  H4  4  0.19023787  0.20179906  0.49632206  1
  H  H5  4  0.23322218  0.17774040  1.12271855  1
  C  C6  4  0.13218690  0.20419368  0.75278747  1
  C  C7  4  0.13983202  0.38579218  0.76983083  1
  C  C8  4  0.19238131  0.39868249  0.93339880  1
  C  C9  4  0.19347595  0.24016451  0.62419600  1
  C  C10  4  0.21201176  0.22151385  1.01141714  1
  C  C11  4  0.22743212  0.76080320  0.38327862  1
  N  N12  4  0.02288704  0.30772235  0.72235969  1
  N  N13  4  0.09235018  0.29855252  0.80007679  1
  N  N14  4  0.12478400  0.32522660  1.18370718  1
  N  N15  4  0.12639361  0.07785467  0.99686197  1
  N  N16  4  0.16333759  0.15784022  0.91017971  1
  N  N17  4  0.17615519  0.34986177  0.60877698  1
  N  N18  4  0.17943454  0.69537442  0.09927645  1
  N  N19  4  0.17960096  0.92894699  0.47168738  1
  N  N20  4  0.18173364  0.31980375  1.06928657  1
  N  N21  4  0.21547786  0.41641096  0.50509062  1
  N  N22  4  0.23460986  0.87421245  0.38058503  1
  N  N23  4  0.23852108  0.71865888  0.20673717  1
  O  O24  4  -0.00643865  0.22849165  0.68309637  1
  O  O25  4  -0.00019783  0.39414901  0.71273917  1
  O  O26  4  0.07393185  0.04581625  0.92257760  1
  O  O27  4  0.09583023  0.40820054  1.19640408  1
  O  O28  4  0.11039629  0.24741973  1.26718345  1
  O  O29  4  0.12157195  0.70351276  0.16796279  1
  O  O30  4  0.12235081  0.88771675  0.47660772  1
  O  O31  4  0.15232758  0.04688200  1.13546439  1
  O  O32  4  0.19231841  0.66568127  -0.05165338  1
  O  O33  4  0.19507220  1.01344058  0.52760611  1
  O  O34  4  0.20123920  0.50705427  0.51950867  1
  O  O35  4  0.24114668  0.87816741  -0.09593083  1
