###############################################################################################
#
# CIF file generated by modified CIFWriter class 
# in pymatgen (v2025.03.10) https://pymatgen.org/
#
###############################################################################################
data_MACE-OFF23(L)_434d610b05dc7e6
_symmetry_space_group_name_H-M   Cc
_cell_length_a   17.90249928
_cell_length_b   7.80076010
_cell_length_c   13.16442202
_cell_angle_alpha   90.00000000
_cell_angle_beta   107.96448054
_cell_angle_gamma   90.00000000
_symmetry_Int_Tables_number   9
_chemical_formula_moiety   'C6 H6 N12 O12'
_chemical_formula_sum   'H24 C24 N48 O48'
_cell_volume   1748.82396327
_cell_formula_units_Z   4
loop_
 _symmetry_equiv_pos_site_id
 _symmetry_equiv_pos_as_xyz
  1  'x, y, z'
  2  'x, -y, z+1/2'
  3  'x+1/2, y+1/2, z'
  4  'x+1/2, -y+1/2, z+1/2'
loop_
 _atom_site_type_symbol
 _atom_site_label
 _atom_site_symmetry_multiplicity
 _atom_site_fract_x
 _atom_site_fract_y
 _atom_site_fract_z
 _atom_site_occupancy
  H  H0  4  0.12403314  0.70958171  -0.01919915  1
  H  H1  4  0.22976893  0.82660220  -0.07297929  1
  H  H2  4  0.24064882  1.04401214  0.21187417  1
  H  H3  4  0.28147281  0.39664778  0.19704505  1
  H  H4  4  0.33260600  0.13510506  0.83664733  1
  H  H5  4  0.38690992  0.51620761  0.14664180  1
  C  C6  4  0.17837984  0.71748575  0.04597583  1
  C  C7  4  0.24763506  0.20546851  0.51086276  1
  C  C8  4  0.24822347  0.07738475  0.67695014  1
  C  C9  4  0.27144850  0.46983751  0.67519910  1
  C  C10  4  0.30920150  0.80323646  0.25994350  1
  C  C11  4  0.34081473  0.39131759  0.64159006  1
  N  N12  4  0.12080074  0.81498079  0.18330119  1
  N  N13  4  0.14782770  0.41063332  0.05705039  1
  N  N14  4  0.17332277  0.15977474  0.62716897  1
  N  N15  4  0.19926533  0.45175300  0.58959215  1
  N  N16  4  0.23334481  0.59748423  0.33589051  1
  N  N17  4  0.26739901  0.94672902  0.07843782  1
  N  N18  4  0.27512030  0.36399783  0.76773054  1
  N  N19  4  0.31061659  0.67016854  0.03328454  1
  N  N20  4  0.32979667  1.04814028  0.07852883  1
  N  N21  4  0.35367886  0.64710117  -0.03695517  1
  N  N22  4  0.37101925  0.75203963  0.21591090  1
  N  N23  4  0.44752440  0.26791878  0.78947035  1
  O  O24  4  0.06857043  0.28565323  0.64499234  1
  O  O25  4  0.08828270  0.43781811  -0.01404670  1
  O  O26  4  0.13227953  0.10180745  0.76437873  1
  O  O27  4  0.16884614  0.72385297  0.60284525  1
  O  O28  4  0.18789853  0.52168163  0.81055889  1
  O  O29  4  0.24686820  0.31818366  0.91682614  1
  O  O30  4  0.33011394  0.27999962  0.37771188  1
  O  O31  4  0.35173476  -0.14857073  0.65197251  1
  O  O32  4  0.35610315  -0.02990215  0.50499754  1
  O  O33  4  0.40867703  0.54987706  -0.00995157  1
  O  O34  4  0.46239290  0.81779592  0.36886663  1
  O  O35  4  0.49088262  0.36176337  0.76122720  1
