###############################################################################################
#
# CIF file generated by modified CIFWriter class 
# in pymatgen (v2025.03.10) https://pymatgen.org/
#
###############################################################################################
data_MACE-OFF23(L)_45762bfcf71580a
_symmetry_space_group_name_H-M   P2_12_12_1
_cell_length_a   12.38966504
_cell_length_b   15.15416067
_cell_length_c   8.65504515
_cell_angle_alpha   90.00000000
_cell_angle_beta   90.00000000
_cell_angle_gamma   90.00000000
_symmetry_Int_Tables_number   19
_chemical_formula_moiety   'C6 H6 N12 O12'
_chemical_formula_sum   'H24 C24 N48 O48'
_cell_volume   1625.02778249
_cell_formula_units_Z   4
loop_
 _symmetry_equiv_pos_site_id
 _symmetry_equiv_pos_as_xyz
  1  'x, y, z'
  2  '-x, y+1/2, -z+1/2'
  3  '-x+1/2, -y, z+1/2'
  4  'x+1/2, -y+1/2, -z'
loop_
 _atom_site_type_symbol
 _atom_site_label
 _atom_site_symmetry_multiplicity
 _atom_site_fract_x
 _atom_site_fract_y
 _atom_site_fract_z
 _atom_site_occupancy
  H  H0  4  -0.12332726  0.18296469  0.39250551  1
  H  H1  4  -0.11893142  0.37595522  0.06750391  1
  H  H2  4  -0.10860589  0.23729485  -0.06860206  1
  H  H3  4  0.05883699  0.16885933  0.46008646  1
  H  H4  4  0.20145187  0.34968849  0.18987832  1
  H  H5  4  0.21021181  0.21115193  0.05653791  1
  C  C6  4  -0.07187233  0.21184668  0.30537302  1
  C  C7  4  -0.06420368  0.32938982  0.12097894  1
  C  C8  4  -0.05860013  0.23876678  0.03352235  1
  C  C9  4  0.05101381  0.20216765  0.35018105  1
  C  C10  4  0.12630708  0.31358418  0.19351573  1
  C  C11  4  0.13191283  0.22312072  0.10712650  1
  N  N12  4  -0.11426937  0.36169378  0.39098185  1
  N  N13  4  -0.10199678  0.30215908  0.27214027  1
  N  N14  4  -0.09744344  0.17789649  0.15254568  1
  N  N15  4  -0.09726540  0.08766958  0.12873864  1
  N  N16  4  0.04201719  0.36968654  0.13231001  1
  N  N17  4  0.05226073  0.22465599  -0.01467389  1
  N  N18  4  0.07047613  0.17147356  -0.14643655  1
  N  N19  4  0.07186606  0.42477307  0.00925345  1
  N  N20  4  0.10057031  0.28967411  0.35250225  1
  N  N21  4  0.10908320  0.15694440  0.22654169  1
  N  N22  4  0.17885995  0.30648273  0.46611035  1
  N  N23  4  0.19570052  0.10144099  0.27314766  1
  O  O24  4  -0.12100028  0.32975094  0.51926048  1
  O  O25  4  -0.11877459  0.43827385  0.35525018  1
  O  O26  4  -0.10508901  0.04295667  0.24393944  1
  O  O27  4  -0.09219779  0.06293057  -0.00352979  1
  O  O28  4  -0.00097141  0.45946233  -0.05989703  1
  O  O29  4  -0.00090096  0.17028748  -0.24070702  1
  O  O30  4  0.15727096  0.13590195  -0.15430320  1
  O  O31  4  0.16642710  0.26916899  0.58804400  1
  O  O32  4  0.16762410  0.43327814  -0.01417371  1
  O  O33  4  0.18475184  0.06618370  0.39647843  1
  O  O34  4  0.23195785  0.90723101  0.68171294  1
  O  O35  4  0.24875575  0.35887836  0.43448882  1
