###############################################################################################
#
# CIF file generated by modified CIFWriter class 
# in pymatgen (v2025.03.10) https://pymatgen.org/
#
###############################################################################################
data_MACE-OFF23(L)_47285a988293f2b
_symmetry_space_group_name_H-M   Pca2_1
_cell_length_a   12.63409139
_cell_length_b   14.47609141
_cell_length_c   8.70478016
_cell_angle_alpha   90.00000000
_cell_angle_beta   90.00000000
_cell_angle_gamma   90.00000000
_symmetry_Int_Tables_number   29
_chemical_formula_moiety   'C6 H6 N12 O12'
_chemical_formula_sum   'H24 C24 N48 O48'
_cell_volume   1592.03693215
_cell_formula_units_Z   4
loop_
 _symmetry_equiv_pos_site_id
 _symmetry_equiv_pos_as_xyz
  1  'x, y, z'
  2  '-x, -y, z+1/2'
  3  '-x+1/2, y, z+1/2'
  4  'x+1/2, -y, z'
loop_
 _atom_site_type_symbol
 _atom_site_label
 _atom_site_symmetry_multiplicity
 _atom_site_fract_x
 _atom_site_fract_y
 _atom_site_fract_z
 _atom_site_occupancy
  H  H0  4  -0.16164782  0.85505503  0.03493058  1
  H  H1  4  -0.09644355  0.60394587  0.22303884  1
  H  H2  4  -0.04893637  0.77254434  -0.13510846  1
  H  H3  4  0.05198904  0.63822389  0.38685122  1
  H  H4  4  0.09067410  0.91427852  0.32188032  1
  H  H5  4  0.20588291  0.83817802  0.14477492  1
  C  C6  4  -0.09808196  0.82066505  0.09525554  1
  C  C7  4  -0.06021733  0.66927594  0.19441465  1
  C  C8  4  -0.02229995  0.76768053  -0.01735138  1
  C  C9  4  0.03793880  0.69224757  0.30362014  1
  C  C10  4  0.05344615  0.85619480  0.26594452  1
  C  C11  4  0.12863371  0.80661176  0.15076109  1
  N  N12  4  -0.22041504  0.75444248  0.28558616  1
  N  N13  4  -0.13595740  0.74483756  0.18980569  1
  N  N14  4  -0.07088728  0.97880457  0.19368845  1
  N  N15  4  -0.04348735  0.79777491  0.48918142  1
  N  N16  4  -0.04159862  0.59874062  -0.06252005  1
  N  N17  4  -0.03935023  0.88771243  0.18408373  1
  N  N18  4  -0.02388747  0.67205166  0.03713971  1
  N  N19  4  0.02902776  0.78272174  0.37500258  1
  N  N20  4  0.08106304  0.80860219  -0.00107794  1
  N  N21  4  0.13355360  0.71370905  0.21683057  1
  N  N22  4  0.14542972  0.82181320  -0.12712241  1
  N  N23  4  0.18269529  0.64445854  0.13506606  1
  O  O24  4  -0.24830257  0.68732112  0.35822195  1
  O  O25  4  -0.14463483  1.00176179  0.11378527  1
  O  O26  4  -0.07669262  0.72978715  0.55479959  1
  O  O27  4  -0.06769733  0.87719895  0.51427660  1
  O  O28  4  -0.06505506  0.52606982  -0.00305671  1
  O  O29  4  -0.02561013  0.61424456  -0.19626492  1
  O  O30  4  -0.01988706  1.02788594  0.27875611  1
  O  O31  4  0.11672956  0.78930212  -0.24792431  1
  O  O32  4  0.16204815  0.56624377  0.17275637  1
  O  O33  4  0.22477046  0.86684852  -0.10490300  1
  O  O34  4  0.23999572  0.16895352  0.28975104  1
  O  O35  4  0.24375445  0.66894502  0.03574857  1
