###############################################################################################
#
# CIF file generated by modified CIFWriter class 
# in pymatgen (v2025.03.10) https://pymatgen.org/
#
###############################################################################################
data_MACE-OFF23(L)_4756c7716340c3a
_symmetry_space_group_name_H-M   Pca2_1
_cell_length_a   16.05808684
_cell_length_b   7.69841653
_cell_length_c   14.12861996
_cell_angle_alpha   90.00000000
_cell_angle_beta   90.00000000
_cell_angle_gamma   90.00000000
_symmetry_Int_Tables_number   29
_chemical_formula_moiety   'C6 H6 N12 O12'
_chemical_formula_sum   'H24 C24 N48 O48'
_cell_volume   1746.60601383
_cell_formula_units_Z   4
loop_
 _symmetry_equiv_pos_site_id
 _symmetry_equiv_pos_as_xyz
  1  'x, y, z'
  2  '-x, -y, z+1/2'
  3  '-x+1/2, y, z+1/2'
  4  'x+1/2, -y, z'
loop_
 _atom_site_type_symbol
 _atom_site_label
 _atom_site_symmetry_multiplicity
 _atom_site_fract_x
 _atom_site_fract_y
 _atom_site_fract_z
 _atom_site_occupancy
  H  H0  4  0.02807332  0.61465167  0.31359532  1
  H  H1  4  0.06926848  0.70619540  0.46867962  1
  H  H2  4  0.10945032  0.11786404  0.37159528  1
  H  H3  4  0.14859828  0.20477999  0.52671661  1
  H  H4  4  0.17506431  0.37817767  0.84851888  1
  H  H5  4  0.21964501  0.66332979  0.81829245  1
  C  C6  4  0.08222748  0.54601492  0.33957281  1
  C  C7  4  0.10831507  0.60372133  0.44118103  1
  C  C8  4  0.13093493  0.25070396  0.37362369  1
  C  C9  4  0.15602990  0.30836802  0.47600356  1
  C  C10  4  0.23029041  0.58496131  0.34617053  1
  C  C11  4  0.23980563  0.39367598  0.86755959  1
  N  N12  4  -0.01581630  0.30582464  0.34906421  1
  N  N13  4  0.06621816  0.36034249  0.33403218  1
  N  N14  4  0.09689168  0.48886439  0.60119602  1
  N  N15  4  0.10315242  0.45371806  0.50290808  1
  N  N16  4  0.15646526  0.59095486  0.28664146  1
  N  N17  4  0.16077502  0.56901920  0.19052823  1
  N  N18  4  0.19468551  0.66259421  0.43093080  1
  N  N19  4  0.19549672  0.26934603  1.01973232  1
  N  N20  4  0.20669148  0.27083428  0.31773252  1
  N  N21  4  0.21610080  0.83052378  0.45552426  1
  N  N22  4  0.24396061  0.35425809  0.46624115  1
  N  N23  4  0.24457240  0.11584227  0.28449808  1
  O  O24  4  -0.06856447  0.41808673  0.34975775  1
  O  O25  4  -0.02679932  0.15186709  0.35794156  1
  O  O26  4  0.08050798  0.63610884  0.62310880  1
  O  O27  4  0.09581033  0.54660990  0.14928679  1
  O  O28  4  0.10515194  0.36590695  0.65305807  1
  O  O29  4  0.12568970  0.27188142  0.98879665  1
  O  O30  4  0.16295307  0.91533089  0.49554342  1
  O  O31  4  0.18205757  0.12123098  0.77090322  1
  O  O32  4  0.19789571  -0.00466030  0.26907738  1
  O  O33  4  0.21367026  0.87663893  0.93866903  1
  O  O34  4  0.21892036  0.20784082  1.09374352  1
  O  O35  4  0.22987578  0.57957476  0.15580777  1
