###############################################################################################
#
# CIF file generated by modified CIFWriter class 
# in pymatgen (v2025.03.10) https://pymatgen.org/
#
###############################################################################################
data_MACE-OFF23(L)_4fbbec3f35f2427
_symmetry_space_group_name_H-M   P2_12_12_1
_cell_length_a   8.82879665
_cell_length_b   13.20268165
_cell_length_c   14.16483305
_cell_angle_alpha   90.00000000
_cell_angle_beta   90.00000000
_cell_angle_gamma   90.00000000
_symmetry_Int_Tables_number   19
_chemical_formula_moiety   'C6 H6 N12 O12'
_chemical_formula_sum   'H24 C24 N48 O48'
_cell_volume   1651.10664587
_cell_formula_units_Z   4
loop_
 _symmetry_equiv_pos_site_id
 _symmetry_equiv_pos_as_xyz
  1  'x, y, z'
  2  '-x+1/2, -y, z+1/2'
  3  'x+1/2, -y+1/2, -z'
  4  '-x, y+1/2, -z+1/2'
loop_
 _atom_site_type_symbol
 _atom_site_label
 _atom_site_symmetry_multiplicity
 _atom_site_fract_x
 _atom_site_fract_y
 _atom_site_fract_z
 _atom_site_occupancy
  H  H0  4  0.02401162  0.22775197  0.12559684  1
  H  H1  4  0.06234269  0.80369587  0.87916002  1
  H  H2  4  0.10328092  0.54133250  0.73950076  1
  H  H3  4  0.14876227  0.92203812  0.76995298  1
  H  H4  4  0.17153809  0.43643136  0.32424748  1
  H  H5  4  0.24624107  0.74921633  0.53995310  1
  C  C6  4  0.11853237  0.24434406  0.17167081  1
  C  C7  4  0.12604006  0.76652799  0.82408737  1
  C  C8  4  0.14377276  0.61818803  0.73305624  1
  C  C9  4  0.18232533  0.84633328  0.75015407  1
  C  C10  4  0.20628852  0.36707752  0.28982970  1
  C  C11  4  0.23010173  0.74094140  0.61511896  1
  N  N12  4  -0.07591751  0.64499081  0.83668433  1
  N  N13  4  -0.06119212  0.36210279  0.24758500  1
  N  N14  4  -0.01254064  0.83298777  0.62808819  1
  N  N15  4  0.03519488  0.68866285  0.77672012  1
  N  N16  4  0.05376418  0.11284609  0.28993464  1
  N  N17  4  0.07219508  0.59631406  0.56837678  1
  N  N18  4  0.08851526  0.33513479  0.22639929  1
  N  N19  4  0.13610058  0.82247571  0.65439120  1
  N  N20  4  0.15701122  0.15848845  0.23147951  1
  N  N21  4  0.17082292  0.64067465  0.63496262  1
  N  N22  4  0.22956073  0.66934395  0.95412493  1
  N  N23  4  0.24504446  0.29004462  0.36179739  1
  O  O24  4  -0.15828189  0.32979140  0.19611605  1
  O  O25  4  -0.14960148  0.70381150  0.88201740  1
  O  O26  4  -0.09533416  0.87580405  0.68289961  1
  O  O27  4  -0.08806957  0.55387020  0.83509777  1
  O  O28  4  -0.07837205  0.12859707  0.27250695  1
  O  O29  4  -0.07818078  0.41829900  0.31421495  1
  O  O30  4  -0.04519788  0.80038459  0.55064887  1
  O  O31  4  -0.02238756  0.53922312  0.59936482  1
  O  O32  4  0.09380400  0.61773983  0.48696089  1
  O  O33  4  0.10524532  0.05977013  0.35191513  1
  O  O34  4  0.13136339  0.70839829  1.00054162  1
  O  O35  4  0.18709755  0.39841732  0.47728817  1
