###############################################################################################
#
# CIF file generated by modified CIFWriter class 
# in pymatgen (v2025.03.10) https://pymatgen.org/
#
###############################################################################################
data_MACE-OFF23(L)_4fbfbafc8d3a571
_symmetry_space_group_name_H-M   P2_12_12_1
_cell_length_a   16.55784938
_cell_length_b   14.22768022
_cell_length_c   7.28234389
_cell_angle_alpha   90.00000000
_cell_angle_beta   90.00000000
_cell_angle_gamma   90.00000000
_symmetry_Int_Tables_number   19
_chemical_formula_moiety   'C6 H6 N12 O12'
_chemical_formula_sum   'H24 C24 N48 O48'
_cell_volume   1715.57301497
_cell_formula_units_Z   4
loop_
 _symmetry_equiv_pos_site_id
 _symmetry_equiv_pos_as_xyz
  1  'x, y, z'
  2  'x+1/2, -y+1/2, -z'
  3  '-x+1/2, -y, z+1/2'
  4  '-x, y+1/2, -z+1/2'
loop_
 _atom_site_type_symbol
 _atom_site_label
 _atom_site_symmetry_multiplicity
 _atom_site_fract_x
 _atom_site_fract_y
 _atom_site_fract_z
 _atom_site_occupancy
  H  H0  4  -0.08803873  0.87839908  -0.03674711  1
  H  H1  4  -0.01329921  0.81144726  -0.27912633  1
  H  H2  4  0.06531561  0.85671777  0.38722524  1
  H  H3  4  0.08098890  1.00916152  0.26213844  1
  H  H4  4  0.19744759  0.74345905  -0.04134431  1
  H  H5  4  0.21568052  0.89687859  -0.16431791  1
  C  C6  4  -0.02444527  0.87619953  -0.00338306  1
  C  C7  4  0.02556495  0.83211597  -0.16674911  1
  C  C8  4  0.06819504  0.85504795  0.23947586  1
  C  C9  4  0.07851362  0.95580506  0.15655153  1
  C  C10  4  0.14660698  0.78906477  -0.01343312  1
  C  C11  4  0.15797451  0.88988267  -0.09680108  1
  N  N12  4  -0.07274940  0.80041484  0.27927007  1
  N  N13  4  -0.05112251  1.03520737  0.11072456  1
  N  N14  4  -0.00863136  0.82281786  0.16291317  1
  N  N15  4  0.00675045  0.96990159  0.04114291  1
  N  N16  4  0.07312974  0.75369311  -0.10075702  1
  N  N17  4  0.07498153  0.97358771  -0.32665897  1
  N  N18  4  0.07516009  0.66918994  -0.19754236  1
  N  N19  4  0.09110473  0.89320394  -0.22795406  1
  N  N20  4  0.13543867  0.79817435  0.18265900  1
  N  N21  4  0.15154881  0.95866091  0.04879953  1
  N  N22  4  0.16776575  0.73175845  0.30259783  1
  N  N23  4  0.19580369  1.04129385  0.04054637  1
  O  O24  4  -0.13885148  0.79879572  0.20993989  1
  O  O25  4  -0.11986632  1.02276287  0.06527258  1
  O  O26  4  -0.05520637  0.78120169  0.43557994  1
  O  O27  4  -0.02411357  1.09860983  0.20222890  1
  O  O28  4  0.01226735  0.97356964  -0.41362658  1
  O  O29  4  0.01895387  0.65495485  -0.30013261  1
  O  O30  4  0.12560359  1.03450746  -0.32504071  1
  O  O31  4  0.13039546  0.61741753  -0.16230986  1
  O  O32  4  0.14493479  0.73646025  0.46012461  1
  O  O33  4  0.17436075  1.10440038  0.14093531  1
  O  O34  4  0.21709956  0.67879110  0.23920323  1
  O  O35  4  0.24632886  -0.04263480  0.43923759  1
