###############################################################################################
#
# CIF file generated by modified CIFWriter class 
# in pymatgen (v2025.03.10) https://pymatgen.org/
#
###############################################################################################
data_MACE-OFF23(L)_51183070816409d
_symmetry_space_group_name_H-M   Pna2_1
_cell_length_a   15.83712811
_cell_length_b   8.02904926
_cell_length_c   11.54468164
_cell_angle_alpha   90.00000000
_cell_angle_beta   90.00000000
_cell_angle_gamma   90.00000000
_symmetry_Int_Tables_number   33
_chemical_formula_moiety   'C6 H6 N12 O12'
_chemical_formula_sum   'H24 C24 N48 O48'
_cell_volume   1467.98802689
_cell_formula_units_Z   4
loop_
 _symmetry_equiv_pos_site_id
 _symmetry_equiv_pos_as_xyz
  1  'x, y, z'
  2  '-x, -y, z+1/2'
  3  '-x+1/2, y+1/2, z+1/2'
  4  'x+1/2, -y+1/2, z'
loop_
 _atom_site_type_symbol
 _atom_site_label
 _atom_site_symmetry_multiplicity
 _atom_site_fract_x
 _atom_site_fract_y
 _atom_site_fract_z
 _atom_site_occupancy
  H  H0  4  0.01066163  0.51761634  0.04112727  1
  H  H1  4  0.05214333  1.01202569  0.13124154  1
  H  H2  4  0.09647651  0.47636988  0.36558498  1
  H  H3  4  0.12375946  0.75365095  0.41744965  1
  H  H4  4  0.15747948  0.47407979  0.02808236  1
  H  H5  4  0.20163007  0.96541577  0.11692709  1
  C  C6  4  0.04411928  0.59427980  0.10257551  1
  C  C7  4  0.06991297  0.88688975  0.15555622  1
  C  C8  4  0.09928023  0.55421298  0.28954850  1
  C  C9  4  0.11747177  0.74028386  0.32462247  1
  C  C10  4  0.14155139  0.56385632  0.09464124  1
  C  C11  4  0.16767886  0.85626565  0.14627075  1
  N  N12  4  -0.05277435  0.81091355  0.03683022  1
  N  N13  4  -0.03322238  0.41254717  0.23865770  1
  N  N14  4  -0.02325895  0.86591794  0.32751784  1
  N  N15  4  0.02156128  0.54819912  0.22121061  1
  N  N16  4  0.02793460  0.76836514  0.07879628  1
  N  N17  4  0.05499451  0.85395143  0.27821239  1
  N  N18  4  0.16454115  0.49746883  0.20971035  1
  N  N19  4  0.17387254  0.31996157  0.20689948  1
  N  N20  4  0.18700721  0.71582854  0.07142163  1
  N  N21  4  0.18849862  0.81291437  0.26411671  1
  N  N22  4  0.21428878  0.74608973  -0.04140695  1
  N  N23  4  0.23032319  0.29271218  0.80153252  1
  O  O24  4  -0.10051277  0.69734142  0.01724510  1
  O  O25  4  -0.07276317  0.95800204  0.28016265  1
  O  O26  4  -0.06930438  0.35879877  0.15510721  1
  O  O27  4  -0.06593996  0.95657081  0.02096711  1
  O  O28  4  -0.04037876  0.36725801  0.33802141  1
  O  O29  4  -0.03375593  0.78603735  0.41571387  1
  O  O30  4  0.12908072  0.23820847  0.26963832  1
  O  O31  4  0.17520146  0.33873742  0.73576638  1
  O  O32  4  0.22084161  0.62646108  -0.10431809  1
  O  O33  4  0.22209356  0.23502903  0.89746176  1
  O  O34  4  0.22668381  0.26932895  0.14108163  1
  O  O35  4  0.23091300  0.88879447  -0.06524486  1
