###############################################################################################
#
# CIF file generated by modified CIFWriter class 
# in pymatgen (v2025.03.10) https://pymatgen.org/
#
###############################################################################################
data_MACE-OFF23(L)_522d2012e06ae3d
_symmetry_space_group_name_H-M   P2_12_12_1
_cell_length_a   16.91237837
_cell_length_b   7.86879266
_cell_length_c   11.90371693
_cell_angle_alpha   90.00000000
_cell_angle_beta   90.00000000
_cell_angle_gamma   90.00000000
_symmetry_Int_Tables_number   19
_chemical_formula_moiety   'C6 H6 N12 O12'
_chemical_formula_sum   'H24 C24 N48 O48'
_cell_volume   1584.14663409
_cell_formula_units_Z   4
loop_
 _symmetry_equiv_pos_site_id
 _symmetry_equiv_pos_as_xyz
  1  'x, y, z'
  2  'x+1/2, -y+1/2, -z'
  3  '-x, y+1/2, -z+1/2'
  4  '-x+1/2, -y, z+1/2'
loop_
 _atom_site_type_symbol
 _atom_site_label
 _atom_site_symmetry_multiplicity
 _atom_site_fract_x
 _atom_site_fract_y
 _atom_site_fract_z
 _atom_site_occupancy
  H  H0  4  0.03597227  1.00545494  1.05427171  1
  H  H1  4  0.06689956  0.98697408  0.85880588  1
  H  H2  4  0.06914895  0.52691331  1.16021343  1
  H  H3  4  0.11361237  0.48372773  0.81843700  1
  H  H4  4  0.19209218  0.66610338  1.18517427  1
  H  H5  4  0.23701651  0.62763701  0.84514293  1
  C  C6  4  0.06832897  0.89085008  1.03482765  1
  C  C7  4  0.08439756  0.60341313  1.08812519  1
  C  C8  4  0.08750620  0.87756740  0.90466676  1
  C  C9  4  0.11112259  0.57702809  0.88495406  1
  C  C10  4  0.16505686  0.69626635  1.10536512  1
  C  C11  4  0.19191301  0.67020385  0.90296296  1
  N  N12  4  -0.03174970  0.76064856  1.15711583  1
  N  N13  4  -0.02094414  0.69719510  0.84358120  1
  N  N14  4  0.02557806  0.73952853  1.07147613  1
  N  N15  4  0.03994927  0.35339611  0.98583604  1
  N  N16  4  0.05898913  0.71996774  0.85510840  1
  N  N17  4  0.09047910  0.49483257  0.99031750  1
  N  N18  4  0.13948308  0.87275562  1.10255037  1
  N  N19  4  0.17039134  0.84537337  0.88360246  1
  N  N20  4  0.19300797  1.00420589  1.11277130  1
  N  N21  4  0.22090931  0.65415488  1.01725646  1
  N  N22  4  0.22534332  0.47763743  0.54009276  1
  N  N23  4  0.22629048  0.96995831  0.87223473  1
  O  O24  4  -0.06477114  0.89643864  1.15961986  1
  O  O25  4  -0.06178425  0.82224798  0.85557673  1
  O  O26  4  -0.04472348  0.63868862  1.21508755  1
  O  O27  4  -0.04298676  0.55493301  0.82060916  1
  O  O28  4  0.00075721  0.32434553  1.06818590  1
  O  O29  4  0.04182068  0.26978284  0.90086175  1
  O  O30  4  0.16767210  1.14581005  1.09621353  1
  O  O31  4  0.19271460  0.53922087  0.46012952  1
  O  O32  4  0.20279210  1.11503867  0.86989304  1
  O  O33  4  0.20577916  0.07808407  0.36537139  1
  O  O34  4  0.21582358  0.51327330  0.63801150  1
  O  O35  4  0.24028918  0.03466521  0.63838533  1
