###############################################################################################
#
# CIF file generated by modified CIFWriter class 
# in pymatgen (v2025.03.10) https://pymatgen.org/
#
###############################################################################################
data_MACE-OFF23(L)_536b898dc689a76
_symmetry_space_group_name_H-M   P2_12_12_1
_cell_length_a   7.85638509
_cell_length_b   17.52045612
_cell_length_c   10.97173099
_cell_angle_alpha   90.00000000
_cell_angle_beta   90.00000000
_cell_angle_gamma   90.00000000
_symmetry_Int_Tables_number   19
_chemical_formula_moiety   'C6 H6 N12 O12'
_chemical_formula_sum   'H24 C24 N48 O48'
_cell_volume   1510.23079485
_cell_formula_units_Z   4
loop_
 _symmetry_equiv_pos_site_id
 _symmetry_equiv_pos_as_xyz
  1  'x, y, z'
  2  '-x, y+1/2, -z+1/2'
  3  'x+1/2, -y+1/2, -z'
  4  '-x+1/2, -y, z+1/2'
loop_
 _atom_site_type_symbol
 _atom_site_label
 _atom_site_symmetry_multiplicity
 _atom_site_fract_x
 _atom_site_fract_y
 _atom_site_fract_z
 _atom_site_occupancy
  H  H0  4  -0.10885158  -0.01497206  0.29212182  1
  H  H1  4  -0.02487825  0.18007145  0.48476599  1
  H  H2  4  0.00060710  0.14518240  0.02576530  1
  H  H3  4  0.03315009  0.27181725  0.32993190  1
  H  H4  4  0.18439986  -0.01528869  0.35320536  1
  H  H5  4  0.20881865  0.85462428  0.58684276  1
  C  C6  4  -0.04814153  0.03987865  0.28015551  1
  C  C7  4  0.00746539  0.15313374  0.39922769  1
  C  C8  4  0.01491936  0.13508598  0.12249736  1
  C  C9  4  0.04776928  0.21423305  0.29633746  1
  C  C10  4  0.14257163  0.03970034  0.32044695  1
  C  C11  4  0.20667811  0.13601363  0.16298058  1
  N  N12  4  -0.17269753  0.02640626  0.07534089  1
  N  N13  4  -0.13528541  0.25786986  0.12751583  1
  N  N14  4  -0.12008723  0.09754666  0.36192277  1
  N  N15  4  -0.06246291  0.19806714  0.19240804  1
  N  N16  4  -0.05562921  0.06182467  0.15306883  1
  N  N17  4  0.14302485  0.09776681  0.41428322  1
  N  N18  4  0.14762411  0.98634464  0.65911244  1
  N  N19  4  0.15914806  0.74571324  0.74047830  1
  N  N20  4  0.21277351  0.38152617  0.64727095  1
  N  N21  4  0.21548947  0.88663853  0.98118382  1
  N  N22  4  0.21617650  0.19855253  0.24905336  1
  N  N23  4  0.24843133  0.93516904  0.72125070  1
  O  O24  4  -0.22563061  -0.03474094  0.10761894  1
  O  O25  4  -0.21060340  0.23952919  0.03540877  1
  O  O26  4  -0.20398856  0.05940604  -0.01881148  1
  O  O27  4  -0.12422556  0.32121211  0.16959304  1
  O  O28  4  0.03255779  0.76294660  0.68413494  1
  O  O29  4  0.07653852  0.96218721  0.56869791  1
  O  O30  4  0.11156564  0.93756683  0.99096182  1
  O  O31  4  0.12125700  0.42362658  0.70546327  1
  O  O32  4  0.13724261  1.05004928  0.69990455  1
  O  O33  4  0.17114010  0.32373769  0.59474563  1
  O  O34  4  0.18721238  0.68695026  0.79387315  1
  O  O35  4  0.20906643  0.82368912  1.02624824  1
