###############################################################################################
#
# CIF file generated by modified CIFWriter class 
# in pymatgen (v2025.03.10) https://pymatgen.org/
#
###############################################################################################
data_MACE-OFF23(L)_56f3650b40df9e2
_symmetry_space_group_name_H-M   P2_1/c
_cell_length_a   11.54252810
_cell_length_b   12.54656089
_cell_length_c   11.98025642
_cell_angle_alpha   90.00000000
_cell_angle_beta   109.03468789
_cell_angle_gamma   90.00000000
_symmetry_Int_Tables_number   14
_chemical_formula_moiety   'C6 H6 N12 O12'
_chemical_formula_sum   'H24 C24 N48 O48'
_cell_volume   1640.10327244
_cell_formula_units_Z   4
loop_
 _symmetry_equiv_pos_site_id
 _symmetry_equiv_pos_as_xyz
  1  'x, y, z'
  2  '-x, -y, -z'
  3  '-x, y+1/2, -z+1/2'
  4  'x, -y+1/2, z+1/2'
loop_
 _atom_site_type_symbol
 _atom_site_label
 _atom_site_symmetry_multiplicity
 _atom_site_fract_x
 _atom_site_fract_y
 _atom_site_fract_z
 _atom_site_occupancy
  H  H0  4  -0.02301914  0.79180933  0.72399921  1
  H  H1  4  0.07974509  0.43829237  0.09204617  1
  H  H2  4  0.13420553  0.74126850  0.64904815  1
  H  H3  4  0.22585253  1.13651955  0.75536126  1
  H  H4  4  0.23857744  0.92837643  1.01312382  1
  H  H5  4  0.39335631  0.62205988  0.43528539  1
  C  C6  4  0.05125187  0.84869400  0.74658805  1
  C  C7  4  0.11280798  0.49708294  0.16095157  1
  C  C8  4  0.15448451  0.81601371  0.69549407  1
  C  C9  4  0.20606945  0.56949046  0.41754657  1
  C  C10  4  0.21218525  1.05361016  0.77184053  1
  C  C11  4  0.30897942  0.60305864  0.36594082  1
  N  N12  4  -0.07533264  0.48912708  0.21571917  1
  N  N13  4  0.01243674  0.95156136  0.68857314  1
  N  N14  4  0.03111555  0.83705402  0.94290518  1
  N  N15  4  0.10399692  0.85827074  0.87347045  1
  N  N16  4  0.15259185  0.59379095  0.11705386  1
  N  N17  4  0.17347881  0.46027308  0.37535042  1
  N  N18  4  0.20931771  1.12251953  0.96169285  1
  N  N19  4  0.23588903  0.58871917  0.05731907  1
  N  N20  4  0.26968705  0.80665232  0.78982733  1
  N  N21  4  0.32566514  0.50801545  0.29991704  1
  N  N22  4  0.35278132  0.77386905  0.28799127  1
  N  N23  4  0.43576177  1.04874256  0.85192143  1
  O  O24  4  -0.13933080  0.53636439  0.26054630  1
  O  O25  4  -0.08102066  0.39558434  0.18781782  1
  O  O26  4  -0.04334725  0.73333172  0.41025308  1
  O  O27  4  0.05240675  0.88837049  1.03329666  1
  O  O28  4  0.20521096  0.28874572  0.42201366  1
  O  O29  4  0.23410160  1.09583445  1.06287901  1
  O  O30  4  0.25431412  0.99866548  0.52419139  1
  O  O31  4  0.27879315  0.82715803  0.54034774  1
  O  O32  4  0.31494777  0.65583448  0.71680840  1
  O  O33  4  0.43143923  0.35552335  0.34612300  1
  O  O34  4  0.45412015  0.76632620  0.35936899  1
  O  O35  4  0.47353119  0.00566435  0.10653458  1
