###############################################################################################
#
# CIF file generated by modified CIFWriter class 
# in pymatgen (v2025.03.10) https://pymatgen.org/
#
###############################################################################################
data_MACE-OFF23(L)_574697937c603f7
_symmetry_space_group_name_H-M   P2/c
_cell_length_a   17.72172542
_cell_length_b   7.81789654
_cell_length_c   14.69947717
_cell_angle_alpha   90.00000000
_cell_angle_beta   90.00000000
_cell_angle_gamma   88.69398177
_symmetry_Int_Tables_number   13
_chemical_formula_moiety   'C6 H6 N12 O12'
_chemical_formula_sum   'H24 C24 N48 O48'
_cell_volume   2036.03376054
_cell_formula_units_Z   4
loop_
 _symmetry_equiv_pos_site_id
 _symmetry_equiv_pos_as_xyz
  1  'x, y, z'
  2  '-x, -y, -z'
  3  '-x+1/2, -y, z'
  4  'x+1/2, y, -z'
loop_
 _atom_site_type_symbol
 _atom_site_label
 _atom_site_symmetry_multiplicity
 _atom_site_fract_x
 _atom_site_fract_y
 _atom_site_fract_z
 _atom_site_occupancy
  H  H0  4  -0.05110095  0.77541286  0.62193148  1
  H  H1  4  -0.03678801  0.58530445  0.88395541  1
  H  H2  4  -0.02543289  0.49640401  0.56395426  1
  H  H3  4  -0.01064885  0.30690524  0.82537059  1
  H  H4  4  0.17379687  0.67680675  0.65680597  1
  H  H5  4  0.17977091  0.57050648  0.80547752  1
  C  C6  4  -0.01381952  0.70120083  0.66563687  1
  C  C7  4  -0.00527890  0.58883481  0.82115130  1
  C  C8  4  0.00346856  0.51823070  0.62731501  1
  C  C9  4  0.01210480  0.40576007  0.78283053  1
  C  C10  4  0.11888053  0.63754520  0.67999735  1
  C  C11  4  0.12278137  0.56487628  0.77984708  1
  N  N12  4  -0.10116252  0.80899991  0.78316073  1
  N  N13  4  -0.08914681  0.32111995  0.68270476  1
  N  N14  4  -0.04841578  0.68199574  0.75401082  1
  N  N15  4  -0.01691011  0.38653001  0.69139643  1
  N  N16  4  0.06173209  0.77197305  0.66831997  1
  N  N17  4  0.06969098  0.66011540  0.83836895  1
  N  N18  4  0.07257883  0.93298590  0.70274680  1
  N  N19  4  0.08486079  0.51987337  0.61594056  1
  N  N20  4  0.09110207  0.66727987  0.93148799  1
  N  N21  4  0.09424731  0.39126453  0.78066882  1
  N  N22  4  0.12328298  0.37335865  0.58927699  1
  N  N23  4  0.12968258  0.27810181  0.84418714  1
  O  O24  4  -0.13646711  0.87953263  0.72382426  1
  O  O25  4  -0.11742847  0.33155246  0.60790415  1
  O  O26  4  -0.11606530  0.25815862  0.74971138  1
  O  O27  4  -0.10733221  0.82724199  0.86423451  1
  O  O28  4  0.01648871  1.02392424  0.70933110  1
  O  O29  4  0.04024392  0.68751707  0.98547307  1
  O  O30  4  0.08702971  0.27169346  0.54597984  1
  O  O31  4  0.08986749  0.18102574  0.88433777  1
  O  O32  4  0.13682542  0.97036378  0.71999222  1
  O  O33  4  0.15759610  0.65949617  0.94725229  1
  O  O34  4  0.18921032  0.36327164  0.60915467  1
  O  O35  4  0.19710678  0.28911482  0.84928372  1
