###############################################################################################
#
# CIF file generated by modified CIFWriter class 
# in pymatgen (v2025.03.10) https://pymatgen.org/
#
###############################################################################################
data_MACE-OFF23(L)_57d16fdb0805882
_symmetry_space_group_name_H-M   Pca2_1
_cell_length_a   15.17990341
_cell_length_b   7.38609871
_cell_length_c   14.84832568
_cell_angle_alpha   90.00000000
_cell_angle_beta   90.00000000
_cell_angle_gamma   90.00000000
_symmetry_Int_Tables_number   29
_chemical_formula_moiety   'C6 H6 N12 O12'
_chemical_formula_sum   'H24 C24 N48 O48'
_cell_volume   1664.79820952
_cell_formula_units_Z   4
loop_
 _symmetry_equiv_pos_site_id
 _symmetry_equiv_pos_as_xyz
  1  'x, y, z'
  2  '-x, -y, z+1/2'
  3  '-x+1/2, y, z+1/2'
  4  'x+1/2, -y, z'
loop_
 _atom_site_type_symbol
 _atom_site_label
 _atom_site_symmetry_multiplicity
 _atom_site_fract_x
 _atom_site_fract_y
 _atom_site_fract_z
 _atom_site_occupancy
  H  H0  4  0.04151804  0.56855345  0.33722215  1
  H  H1  4  0.09940038  0.64364861  0.60284145  1
  H  H2  4  0.15568076  0.08252742  0.41061000  1
  H  H3  4  0.15983409  0.35848371  0.64435949  1
  H  H4  4  0.18392692  0.71165486  0.34620278  1
  H  H5  4  0.20369695  0.22458886  0.92165014  1
  C  C6  4  0.08335808  0.51014001  0.38864447  1
  C  C7  4  0.11952674  0.56609076  0.54466327  1
  C  C8  4  0.15049989  0.22124037  0.43249042  1
  C  C9  4  0.16200791  0.37780428  0.57227021  1
  C  C10  4  0.17578052  0.60363565  0.39459517  1
  C  C11  4  0.24287852  0.31429760  0.43986691  1
  N  N12  4  -0.02770000  0.46070124  0.50667354  1
  N  N13  4  0.04229730  0.22872602  0.30900168  1
  N  N14  4  0.04819981  0.54459061  0.47944749  1
  N  N15  4  0.07626994  0.09130422  0.56738604  1
  N  N16  4  0.09718958  0.32078548  0.36919579  1
  N  N17  4  0.11692684  0.23434799  0.52396375  1
  N  N18  4  0.17676570  0.66875326  0.48625621  1
  N  N19  4  0.18491048  0.27473643  1.08649286  1
  N  N20  4  0.20247999  0.47385806  0.80692639  1
  N  N21  4  0.22911166  0.80722641  0.51346603  1
  N  N22  4  0.24571775  0.47229667  0.38297852  1
  N  N23  4  0.24922802  0.36580757  1.03514421  1
  O  O24  4  -0.07817431  0.41265121  0.44804190  1
  O  O25  4  -0.03869547  0.44557994  0.58703186  1
  O  O26  4  -0.00593709  0.32118782  0.26399477  1
  O  O27  4  0.04976652  -0.02872867  0.51852218  1
  O  O28  4  0.05066093  0.06632991  0.30647541  1
  O  O29  4  0.06855589  0.10415693  0.64755861  1
  O  O30  4  0.12504492  0.20780799  1.04512568  1
  O  O31  4  0.15128197  0.34923408  0.79760587  1
  O  O32  4  0.19398705  0.27901662  1.16719004  1
  O  O33  4  0.21210808  0.60040069  0.75617717  1
  O  O34  4  0.22888051  0.84540338  0.59263962  1
  O  O35  4  0.22942614  0.88310429  0.95409358  1
