###############################################################################################
#
# CIF file generated by modified CIFWriter class 
# in pymatgen (v2025.03.10) https://pymatgen.org/
#
###############################################################################################
data_MACE-OFF23(L)_58b8ecf720c42a6
_symmetry_space_group_name_H-M   P2_1/c
_cell_length_a   8.02760138
_cell_length_b   12.40990488
_cell_length_c   16.01062800
_cell_angle_alpha   90.00000000
_cell_angle_beta   82.27464955
_cell_angle_gamma   90.00000000
_symmetry_Int_Tables_number   14
_chemical_formula_moiety   'C6 H6 N12 O12'
_chemical_formula_sum   'H24 C24 N48 O48'
_cell_volume   1580.53052319
_cell_formula_units_Z   4
loop_
 _symmetry_equiv_pos_site_id
 _symmetry_equiv_pos_as_xyz
  1  'x, y, z'
  2  '-x, -y, -z'
  3  '-x, y+1/2, -z+1/2'
  4  'x, -y+1/2, z+1/2'
loop_
 _atom_site_type_symbol
 _atom_site_label
 _atom_site_symmetry_multiplicity
 _atom_site_fract_x
 _atom_site_fract_y
 _atom_site_fract_z
 _atom_site_occupancy
  H  H0  4  0.18831825  0.72848379  0.71285682  1
  H  H1  4  0.34684665  0.50439002  0.07197821  1
  H  H2  4  0.37906719  0.47862643  0.88522920  1
  H  H3  4  0.41484040  0.25388847  0.56136432  1
  H  H4  4  0.46170222  0.78871625  0.25644652  1
  H  H5  4  0.49394597  0.90301504  0.01966258  1
  C  C6  4  0.28850228  0.74702190  0.16435373  1
  C  C7  4  0.38230155  0.91275706  0.58047904  1
  C  C8  4  0.43944517  0.40187406  0.89091284  1
  C  C9  4  0.46671900  0.27083285  0.99844785  1
  C  C10  4  0.46735892  0.75758591  0.19305812  1
  C  C11  4  0.47112351  0.83092900  0.05693935  1
  N  N12  4  0.12902680  0.92209901  0.68492326  1
  N  N13  4  0.19064829  0.58944527  0.59860751  1
  N  N14  4  0.19079567  0.29910002  0.95270746  1
  N  N15  4  0.25723790  0.86167732  0.63985548  1
  N  N16  4  0.27131205  0.66159549  -0.04332699  1
  N  N17  4  0.29541160  0.68209007  0.59084596  1
  N  N18  4  0.34962474  0.33900122  0.96030163  1
  N  N19  4  0.35890989  0.11975859  0.24897454  1
  N  N20  4  0.39827451  0.06688272  0.83787970  1
  N  N21  4  0.40699272  0.85484263  0.50005337  1
  N  N22  4  0.44291308  0.16735734  0.86830182  1
  N  N23  4  0.45562507  0.15263229  0.31060345  1
  O  O24  4  0.04743796  0.87686443  0.74342248  1
  O  O25  4  0.05953754  0.59957078  0.64412771  1
  O  O26  4  0.11129325  1.01230746  0.66017161  1
  O  O27  4  0.11737623  0.34318963  0.90106096  1
  O  O28  4  0.14169856  0.22633436  0.99954034  1
  O  O29  4  0.15698842  0.90187711  0.47060320  1
  O  O30  4  0.23988476  0.51313158  0.55604863  1
  O  O31  4  0.28604994  0.76528502  0.40603396  1
  O  O32  4  0.30583771  0.02842124  0.25418820  1
  O  O33  4  0.34226762  0.31609100  0.69445530  1
  O  O34  4  0.35606674  0.43257996  0.26812286  1
  O  O35  4  0.40026567  -0.00945076  0.88404922  1
