###############################################################################################
#
# CIF file generated by modified CIFWriter class 
# in pymatgen (v2025.03.10) https://pymatgen.org/
#
###############################################################################################
data_MACE-OFF23(L)_5a616b99acaae63
_symmetry_space_group_name_H-M   P2_1/c
_cell_length_a   8.56686191
_cell_length_b   12.52565779
_cell_length_c   16.21173588
_cell_angle_alpha   90.00000000
_cell_angle_beta   121.29141947
_cell_angle_gamma   90.00000000
_symmetry_Int_Tables_number   14
_chemical_formula_moiety   'C6 H6 N12 O12'
_chemical_formula_sum   'H24 C24 N48 O48'
_cell_volume   1486.56022596
_cell_formula_units_Z   4
loop_
 _symmetry_equiv_pos_site_id
 _symmetry_equiv_pos_as_xyz
  1  'x, y, z'
  2  '-x, -y, -z'
  3  '-x, y+1/2, -z+1/2'
  4  'x, -y+1/2, z+1/2'
loop_
 _atom_site_type_symbol
 _atom_site_label
 _atom_site_symmetry_multiplicity
 _atom_site_fract_x
 _atom_site_fract_y
 _atom_site_fract_z
 _atom_site_occupancy
  H  H0  4  -0.16027221  0.20271528  -0.03498966  1
  H  H1  4  -0.04745819  0.15946458  0.72180816  1
  H  H2  4  0.06642097  0.19200370  0.46412035  1
  H  H3  4  0.17928994  0.04930714  0.71979186  1
  H  H4  4  0.33512105  0.42522529  0.65597879  1
  H  H5  4  0.39722452  0.34698364  0.80526694  1
  C  C6  4  -0.04694381  0.21778466  0.03718989  1
  C  C7  4  0.02091090  0.19947409  0.69021004  1
  C  C8  4  0.10274610  0.21193172  0.53676272  1
  C  C9  4  0.16961825  0.37232709  0.18931816  1
  C  C10  4  0.25075362  0.35607148  0.64412871  1
  C  C11  4  0.29262693  0.19553794  0.24277816  1
  N  N12  4  -0.29041845  0.30753065  0.04797178  1
  N  N13  4  -0.11479259  0.23477247  0.59391351  1
  N  N14  4  -0.02588341  0.02810324  0.07977860  1
  N  N15  4  0.05045804  0.37107710  0.76905874  1
  N  N16  4  0.05678323  0.12184066  0.08275609  1
  N  N17  4  0.12145379  0.11510197  0.58953302  1
  N  N18  4  0.12886271  0.29022580  0.74680205  1
  N  N19  4  0.18659649  0.02457611  0.56621480  1
  N  N20  4  0.27073726  0.27570395  0.58527433  1
  N  N21  4  0.33535729  0.19131661  0.74814452  1
  N  N22  4  0.34659550  0.31030920  0.53052452  1
  N  N23  4  0.49848502  0.16044298  0.75903412  1
  O  O24  4  -0.38415303  0.29172045  -0.03796023  1
  O  O25  4  -0.33366358  0.14590690  0.59821312  1
  O  O26  4  -0.19161432  0.02944757  0.03642534  1
  O  O27  4  -0.09725908  0.14794165  0.25894838  1
  O  O28  4  0.07144181  0.54876637  0.61832033  1
  O  O29  4  0.13564543  0.45404302  0.79673742  1
  O  O30  4  0.19388101  -0.05696301  0.60795663  1
  O  O31  4  0.22012620  0.03363840  0.50279504  1
  O  O32  4  0.27798741  0.27529280  0.44963619  1
  O  O33  4  0.38607661  0.72867197  0.71653271  1
  O  O34  4  0.47804266  0.36724481  0.57245554  1
  O  O35  4  0.48901394  0.56659125  0.75550358  1
