###############################################################################################
#
# CIF file generated by modified CIFWriter class 
# in pymatgen (v2025.03.10) https://pymatgen.org/
#
###############################################################################################
data_MACE-OFF23(L)_5b662c99e4ceab6
_symmetry_space_group_name_H-M   P2/c
_cell_length_a   15.77168587
_cell_length_b   14.13752711
_cell_length_c   7.63731165
_cell_angle_alpha   90.00000000
_cell_angle_beta   73.65203401
_cell_angle_gamma   90.00000000
_symmetry_Int_Tables_number   13
_chemical_formula_moiety   'C6 H6 N12 O12'
_chemical_formula_sum   'H24 C24 N48 O48'
_cell_volume   1634.06278843
_cell_formula_units_Z   4
loop_
 _symmetry_equiv_pos_site_id
 _symmetry_equiv_pos_as_xyz
  1  'x, y, z'
  2  '-x, -y, -z'
  3  '-x, y, -z+1/2'
  4  'x, -y, z+1/2'
loop_
 _atom_site_type_symbol
 _atom_site_label
 _atom_site_symmetry_multiplicity
 _atom_site_fract_x
 _atom_site_fract_y
 _atom_site_fract_z
 _atom_site_occupancy
  H  H0  4  0.07576776  0.20789042  0.52980181  1
  H  H1  4  0.10920078  0.63101745  0.92445770  1
  H  H2  4  0.29415984  0.06864171  0.25831600  1
  H  H3  4  0.31516500  0.88683005  1.04359690  1
  H  H4  4  0.35236979  0.34268548  0.06792352  1
  H  H5  4  0.37079240  0.61207599  0.85721431  1
  C  C6  4  0.14556459  0.21910551  0.46634016  1
  C  C7  4  0.16721349  0.67559792  0.89660790  1
  C  C8  4  0.27522444  0.85874261  0.79236011  1
  C  C9  4  0.28820639  0.16997696  0.48126743  1
  C  C10  4  0.30954668  0.30351171  0.17958172  1
  C  C11  4  0.32187853  0.66713493  0.86942337  1
  N  N12  4  0.12974761  0.92318407  0.79211961  1
  N  N13  4  0.16452097  0.17801971  0.76750389  1
  N  N14  4  0.17589111  0.33525602  0.07191808  1
  N  N15  4  0.18052798  0.15509232  0.31335203  1
  N  N16  4  0.19930007  0.19442160  0.58502750  1
  N  N17  4  0.21674449  0.32571428  0.20625406  1
  N  N18  4  0.22226054  0.44238838  0.58047688  1
  N  N19  4  0.23463971  0.36429362  0.47078095  1
  N  N20  4  0.32930374  0.20294299  0.15444338  1
  N  N21  4  0.34586030  0.74786446  0.96448672  1
  N  N22  4  0.36582195  0.83298588  0.47774275  1
  N  N23  4  0.43468114  0.76266053  0.95011766  1
  O  O24  4  0.05294610  0.92173640  0.87491107  1
  O  O25  4  0.08691175  0.19558026  0.82984798  1
  O  O26  4  0.09614674  0.33190467  0.12106978  1
  O  O27  4  0.14697048  0.46839105  0.64623012  1
  O  O28  4  0.16835095  0.98264661  0.68463606  1
  O  O29  4  0.21441525  0.85151114  1.34958279  1
  O  O30  4  0.22330818  0.34757199  -0.08191309  1
  O  O31  4  0.28820021  0.52300337  1.10610752  1
  O  O32  4  0.36793007  0.91801852  0.46324792  1
  O  O33  4  0.39430541  0.77580429  0.35886072  1
  O  O34  4  0.45920049  0.84324119  0.95474815  1
  O  O35  4  0.47982800  0.69232902  0.93689816  1
