###############################################################################################
#
# CIF file generated by modified CIFWriter class 
# in pymatgen (v2025.03.10) https://pymatgen.org/
#
###############################################################################################
data_MACE-OFF23(L)_5bbdbddc5bfe2c6
_symmetry_space_group_name_H-M   P2_1/c
_cell_length_a   8.46733732
_cell_length_b   14.28884332
_cell_length_c   14.08333733
_cell_angle_alpha   90.00000000
_cell_angle_beta   97.99067167
_cell_angle_gamma   90.00000000
_symmetry_Int_Tables_number   14
_chemical_formula_moiety   'C6 H6 N12 O12'
_chemical_formula_sum   'H24 C24 N48 O48'
_cell_volume   1687.37738634
_cell_formula_units_Z   4
loop_
 _symmetry_equiv_pos_site_id
 _symmetry_equiv_pos_as_xyz
  1  'x, y, z'
  2  '-x, -y, -z'
  3  '-x, y+1/2, -z+1/2'
  4  'x, -y+1/2, z+1/2'
loop_
 _atom_site_type_symbol
 _atom_site_label
 _atom_site_symmetry_multiplicity
 _atom_site_fract_x
 _atom_site_fract_y
 _atom_site_fract_z
 _atom_site_occupancy
  H  H0  4  0.16355305  0.48507958  0.09187000  1
  H  H1  4  0.19406773  0.28242691  0.70645914  1
  H  H2  4  0.40903258  0.52477345  0.18612262  1
  H  H3  4  0.44195434  0.25691951  0.29930160  1
  H  H4  4  0.46595283  0.71175207  0.46772524  1
  H  H5  4  0.48652492  0.63536733  1.03565373  1
  C  C6  4  0.24374795  0.42598977  0.10299057  1
  C  C7  4  0.26252070  0.26672587  0.17016890  1
  C  C8  4  0.40535383  0.45234475  0.16410798  1
  C  C9  4  0.42525027  0.29345554  0.23164443  1
  C  C10  4  0.45795665  0.13935578  0.52874030  1
  C  C11  4  0.47205364  0.24054727  0.57395655  1
  N  N12  4  0.06279686  0.12401357  0.71101998  1
  N  N13  4  0.16379239  0.34907002  0.14377045  1
  N  N14  4  0.18636157  0.35978390  -0.05912411  1
  N  N15  4  0.23729399  0.15471396  0.03371971  1
  N  N16  4  0.29559298  0.39578346  0.01326059  1
  N  N17  4  0.31534457  0.22653527  0.08632368  1
  N  N18  4  0.32052252  0.55709762  0.87744388  1
  N  N19  4  0.34355451  0.69465145  0.29313459  1
  N  N20  4  0.42542260  0.10664925  0.74890377  1
  N  N21  4  0.45153079  0.76649913  0.32685046  1
  N  N22  4  0.47388553  0.92699781  0.17021590  1
  N  N23  4  0.48178724  0.93298564  0.40361382  1
  O  O24  4  -0.01239897  0.18613323  0.74139353  1
  O  O25  4  0.04970062  0.11743840  0.44084699  1
  O  O26  4  0.06000788  0.45825640  0.22946377  1
  O  O27  4  0.11315606  0.36996290  0.55816214  1
  O  O28  4  0.23621622  0.59540612  0.92851028  1
  O  O29  4  0.24139232  0.18961669  0.38334282  1
  O  O30  4  0.26419159  0.66462404  0.34999453  1
  O  O31  4  0.27939534  0.99251228  0.30898857  1
  O  O32  4  0.30071409  0.37369229  0.46754804  1
  O  O33  4  0.33765878  0.67419344  0.20912036  1
  O  O34  4  0.39912299  0.86917158  0.12041985  1
  O  O35  4  0.47529792  0.48961916  0.65699038  1
