###############################################################################################
#
# CIF file generated by modified CIFWriter class 
# in pymatgen (v2025.03.10) https://pymatgen.org/
#
###############################################################################################
data_MACE-OFF23(L)_5c71b8d12d6ef1f
_symmetry_space_group_name_H-M   Pna2_1
_cell_length_a   12.47660540
_cell_length_b   8.95230369
_cell_length_c   14.02510300
_cell_angle_alpha   90.00000000
_cell_angle_beta   90.00000000
_cell_angle_gamma   90.00000000
_symmetry_Int_Tables_number   33
_chemical_formula_moiety   'C6 H6 N12 O12'
_chemical_formula_sum   'H24 C24 N48 O48'
_cell_volume   1566.52491188
_cell_formula_units_Z   4
loop_
 _symmetry_equiv_pos_site_id
 _symmetry_equiv_pos_as_xyz
  1  'x, y, z'
  2  '-x, -y, z+1/2'
  3  '-x+1/2, y+1/2, z+1/2'
  4  'x+1/2, -y+1/2, z'
loop_
 _atom_site_type_symbol
 _atom_site_label
 _atom_site_symmetry_multiplicity
 _atom_site_fract_x
 _atom_site_fract_y
 _atom_site_fract_z
 _atom_site_occupancy
  H  H0  4  0.05446836  0.42394266  0.65828768  1
  H  H1  4  0.06209221  0.41540528  0.36803114  1
  H  H2  4  0.11334027  0.12166549  -0.00834006  1
  H  H3  4  0.16340067  0.63077043  0.69667269  1
  H  H4  4  0.20108810  0.25357103  0.42270090  1
  H  H5  4  0.24791033  0.78236458  0.43816872  1
  C  C6  4  0.10379353  0.45681930  0.59845944  1
  C  C7  4  0.10644572  0.46257187  0.42695226  1
  C  C8  4  0.17658975  0.59671701  0.62370597  1
  C  C9  4  0.19163055  0.07396450  0.00370177  1
  C  C10  4  0.19772787  0.35685011  0.46258948  1
  C  C11  4  0.21638133  0.68078199  0.46910379  1
  N  N12  4  -0.04705782  0.56971840  0.51214141  1
  N  N13  4  0.03972093  0.47599338  0.51266119  1
  N  N14  4  0.10286433  0.68669146  0.32697358  1
  N  N15  4  0.11014627  -0.14258380  -0.07601796  1
  N  N16  4  0.13340699  0.09951504  0.17149538  1
  N  N17  4  0.15346717  0.60376912  0.39855564  1
  N  N18  4  0.15541767  0.71708481  0.55630810  1
  N  N19  4  0.16561659  0.33107695  0.56167576  1
  N  N20  4  0.17366543  0.86539808  0.59124347  1
  N  N21  4  0.20094655  -0.06560855  -0.04678704  1
  N  N22  4  0.21230952  0.05707855  0.10613175  1
  N  N23  4  0.23297907  0.25469146  0.62262339  1
  O  O24  4  -0.08384282  0.60706229  0.58834122  1
  O  O25  4  -0.08177867  0.60403830  0.43429665  1
  O  O26  4  0.02473474  -0.08340834  -0.06133301  1
  O  O27  4  0.04230039  0.08830337  0.14365105  1
  O  O28  4  0.05645005  0.61445230  0.26733616  1
  O  O29  4  0.11211013  0.82050409  0.33018599  1
  O  O30  4  0.12466776  -0.26112238  -0.11555200  1
  O  O31  4  0.16350965  0.13568743  0.24963812  1
  O  O32  4  0.17220602  0.96061777  0.53083178  1
  O  O33  4  0.18417040  0.88050343  0.67578838  1
  O  O34  4  0.19084534  -0.30728650  0.08720876  1
  O  O35  4  0.20768175  0.25601772  0.70593094  1
