###############################################################################################
#
# CIF file generated by modified CIFWriter class 
# in pymatgen (v2025.03.10) https://pymatgen.org/
#
###############################################################################################
data_MACE-OFF23(L)_5d75b8e76209aad
_symmetry_space_group_name_H-M   P2_12_12
_cell_length_a   14.81494051
_cell_length_b   14.65996740
_cell_length_c   8.12679498
_cell_angle_alpha   90.00000000
_cell_angle_beta   90.00000000
_cell_angle_gamma   90.00000000
_symmetry_Int_Tables_number   18
_chemical_formula_moiety   'C6 H6 N12 O12'
_chemical_formula_sum   'H24 C24 N48 O48'
_cell_volume   1765.03052302
_cell_formula_units_Z   4
loop_
 _symmetry_equiv_pos_site_id
 _symmetry_equiv_pos_as_xyz
  1  'x, y, z'
  2  '-x, -y, z'
  3  '-x+1/2, y+1/2, -z'
  4  'x+1/2, -y+1/2, -z'
loop_
 _atom_site_type_symbol
 _atom_site_label
 _atom_site_symmetry_multiplicity
 _atom_site_fract_x
 _atom_site_fract_y
 _atom_site_fract_z
 _atom_site_occupancy
  H  H0  4  0.07274444  0.49371075  0.83744037  1
  H  H1  4  0.12265625  0.99448025  0.45778428  1
  H  H2  4  0.13319329  1.06769695  -0.02604048  1
  H  H3  4  0.15826786  0.38090058  0.97769688  1
  H  H4  4  0.21634853  1.17679586  0.13162160  1
  H  H5  4  0.24106263  0.88897102  0.47983702  1
  C  C6  4  0.14366875  0.49829985  0.80957527  1
  C  C7  4  0.16818754  1.00038539  0.35471221  1
  C  C8  4  0.17516170  1.03579343  0.06654021  1
  C  C9  4  0.20015812  0.42619715  0.90563112  1
  C  C10  4  0.22990190  1.10733816  0.16909728  1
  C  C11  4  0.24806928  0.93035006  0.37008360  1
  N  N12  4  0.06671079  0.91978648  0.16537306  1
  N  N13  4  0.12075742  0.64493775  0.94412777  1
  N  N14  4  0.12142151  0.99352074  0.19707682  1
  N  N15  4  0.12805041  0.52496550  0.51520643  1
  N  N16  4  0.14540114  1.16089557  0.41186537  1
  N  N17  4  0.16251242  0.47186126  0.64127116  1
  N  N18  4  0.17408833  0.59030170  0.84369792  1
  N  N19  4  0.20227040  1.09284922  0.34085619  1
  N  N20  4  0.21118825  0.93213131  -0.16013582  1
  N  N21  4  0.22511837  0.28192018  0.75602131  1
  N  N22  4  0.23844559  0.97465660  -0.01303806  1
  N  N23  4  0.24864956  0.37439757  0.77855389  1
  O  O24  4  0.04001860  0.87815093  0.28462258  1
  O  O25  4  0.04432851  0.61915166  0.96842885  1
  O  O26  4  0.04774869  0.90597506  0.02317303  1
  O  O27  4  0.06631770  0.57478762  0.55134756  1
  O  O28  4  0.10429830  1.13824979  0.53239580  1
  O  O29  4  0.14793906  1.23499923  0.34859310  1
  O  O30  4  0.15449298  0.71424647  0.99557783  1
  O  O31  4  0.15692353  0.97308499  -0.24198003  1
  O  O32  4  0.16157127  0.51383944  0.38129072  1
  O  O33  4  0.17360211  0.24887857  0.85448774  1
  O  O34  4  0.23684462  0.74449757  0.35576989  1
  O  O35  4  0.24747930  0.86105268  -0.19398284  1
