###############################################################################################
#
# CIF file generated by modified CIFWriter class 
# in pymatgen (v2025.03.10) https://pymatgen.org/
#
###############################################################################################
data_MACE-OFF23(L)_5e135d7c815bf93
_symmetry_space_group_name_H-M   P2_1/c
_cell_length_a   12.66389585
_cell_length_b   8.54050928
_cell_length_c   17.03193209
_cell_angle_alpha   90.00000000
_cell_angle_beta   106.81480070
_cell_angle_gamma   90.00000000
_symmetry_Int_Tables_number   14
_chemical_formula_moiety   'C6 H6 N12 O12'
_chemical_formula_sum   'H24 C24 N48 O48'
_cell_volume   1763.34801402
_cell_formula_units_Z   4
loop_
 _symmetry_equiv_pos_site_id
 _symmetry_equiv_pos_as_xyz
  1  'x, y, z'
  2  '-x, -y, -z'
  3  '-x, y+1/2, -z+1/2'
  4  'x, -y+1/2, z+1/2'
loop_
 _atom_site_type_symbol
 _atom_site_label
 _atom_site_symmetry_multiplicity
 _atom_site_fract_x
 _atom_site_fract_y
 _atom_site_fract_z
 _atom_site_occupancy
  H  H0  4  0.12883811  0.27717148  0.70343564  1
  H  H1  4  0.16515801  0.06515928  0.79464724  1
  H  H2  4  0.19123226  -0.15402068  0.35700625  1
  H  H3  4  0.26040327  0.27672314  1.01563526  1
  H  H4  4  0.35627610  0.60291072  0.82083373  1
  H  H5  4  0.42227630  0.27931290  0.47667245  1
  C  C6  4  0.17728057  0.31366344  0.76393398  1
  C  C7  4  0.20295606  0.17020372  0.82544566  1
  C  C8  4  0.20998867  0.53057130  0.85787185  1
  C  C9  4  0.25031694  0.30482369  0.95187628  1
  C  C10  4  0.31746608  0.00312837  0.33345875  1
  C  C11  4  0.35733015  0.23094822  0.42643125  1
  N  N12  4  0.02269917  0.07168135  0.30139468  1
  N  N13  4  0.11639126  0.41295780  0.43091244  1
  N  N14  4  0.12702613  0.05472144  0.29378894  1
  N  N15  4  0.16629174  0.20598610  0.89719229  1
  N  N16  4  0.19025010  0.55573691  0.99683374  1
  N  N17  4  0.22171528  0.03223298  0.43830852  1
  N  N18  4  0.27519538  0.39990798  0.76084533  1
  N  N19  4  0.32207470  0.34547778  0.35920234  1
  N  N20  4  0.34638728  0.16096175  0.22119036  1
  N  N21  4  0.36601105  0.49807935  0.37396713  1
  N  N22  4  0.39487147  0.08756849  0.39950461  1
  N  N23  4  0.49348539  0.55567262  0.08032008  1
  O  O24  4  -0.03004302  0.18269991  0.26685907  1
  O  O25  4  -0.00785225  0.52920456  0.83986127  1
  O  O26  4  0.06432190  0.50772457  0.38273823  1
  O  O27  4  0.12633875  0.40396204  0.50339844  1
  O  O28  4  0.17123316  -0.19235894  0.48100849  1
  O  O29  4  0.18662404  0.01338509  0.55762420  1
  O  O30  4  0.30884468  -0.10322246  0.83714587  1
  O  O31  4  0.31039515  0.23515189  0.67294310  1
  O  O32  4  0.43122862  0.65663638  0.04387825  1
  O  O33  4  0.43683818  0.39969720  0.73747812  1
  O  O34  4  0.45817436  -0.00731074  0.91952352  1
  O  O35  4  0.46709193  1.07351141  0.59687645  1
