###############################################################################################
#
# CIF file generated by modified CIFWriter class 
# in pymatgen (v2025.03.10) https://pymatgen.org/
#
###############################################################################################
data_MACE-OFF23(L)_6043ce0865b717d
_symmetry_space_group_name_H-M   P2/c
_cell_length_a   26.03278062
_cell_length_b   8.03390878
_cell_length_c   8.27244186
_cell_angle_alpha   90.00000000
_cell_angle_beta   90.00000000
_cell_angle_gamma   90.13025913
_symmetry_Int_Tables_number   13
_chemical_formula_moiety   'C6 H6 N12 O12'
_chemical_formula_sum   'H24 C24 N48 O48'
_cell_volume   1730.13525606
_cell_formula_units_Z   4
loop_
 _symmetry_equiv_pos_site_id
 _symmetry_equiv_pos_as_xyz
  1  'x, y, z'
  2  '-x, -y, -z'
  3  '-x+1/2, -y, z'
  4  'x+1/2, y, -z'
loop_
 _atom_site_type_symbol
 _atom_site_label
 _atom_site_symmetry_multiplicity
 _atom_site_fract_x
 _atom_site_fract_y
 _atom_site_fract_z
 _atom_site_occupancy
  H  H0  4  0.02861518  0.92632781  0.56799173  1
  H  H1  4  0.04904694  0.68183123  0.71477558  1
  H  H2  4  0.05054833  1.06696842  1.03521217  1
  H  H3  4  0.13848551  1.14580276  1.03730190  1
  H  H4  4  0.18162764  1.07060061  0.57818945  1
  H  H5  4  0.20163283  0.82160359  0.72585539  1
  C  C6  4  0.05981640  0.94827810  0.65086495  1
  C  C7  4  0.07061272  1.01866918  0.93101127  1
  C  C8  4  0.07284305  0.78677821  0.74861289  1
  C  C9  4  0.12901980  1.07167961  0.93201755  1
  C  C10  4  0.15086221  1.03105993  0.65727104  1
  C  C11  4  0.16399068  0.87030116  0.75358699  1
  N  N12  4  0.03024903  1.22296551  0.75051096  1
  N  N13  4  0.04522543  1.06220368  0.78049869  1
  N  N14  4  0.06278109  0.84016817  0.91378270  1
  N  N15  4  0.07475336  0.73360956  1.04028157  1
  N  N16  4  0.09884547  1.09365903  0.42001959  1
  N  N17  4  0.10544921  0.99804699  0.56129011  1
  N  N18  4  0.12638464  0.73960883  0.72841727  1
  N  N19  4  0.13744526  0.62135998  0.60897269  1
  N  N20  4  0.14108766  1.15776233  0.78088840  1
  N  N21  4  0.16051217  0.92336285  0.92054724  1
  N  N22  4  0.17549462  1.29437923  0.79011498  1
  N  N23  4  0.19902068  0.89247205  1.03152466  1
  O  O24  4  0.01709678  1.25373403  0.61374381  1
  O  O25  4  0.03051540  1.31633247  0.86517314  1
  O  O26  4  0.05799901  1.08088450  0.35210910  1
  O  O27  4  0.07587450  0.58804976  1.00883699  1
  O  O28  4  0.08125171  0.80013584  1.17041125  1
  O  O29  4  0.10516275  0.51495072  0.58766836  1
  O  O30  4  0.13513847  1.17486721  0.37633247  1
  O  O31  4  0.16918218  1.38550972  0.90344816  1
  O  O32  4  0.17850966  0.63443377  0.54294984  1
  O  O33  4  0.19163999  0.94369276  1.16592994  1
  O  O34  4  0.20537771  1.30942245  0.67981945  1
  O  O35  4  0.23556719  0.81259520  0.98373102  1
