###############################################################################################
#
# CIF file generated by modified CIFWriter class 
# in pymatgen (v2025.03.10) https://pymatgen.org/
#
###############################################################################################
data_MACE-OFF23(L)_617c1a749858631
_symmetry_space_group_name_H-M   P4_1
_cell_length_a   15.49273884
_cell_length_b   15.49273884
_cell_length_c   8.16408852
_cell_angle_alpha   90.00000000
_cell_angle_beta   90.00000000
_cell_angle_gamma   90.00000000
_symmetry_Int_Tables_number   76
_chemical_formula_moiety   'C6 H6 N12 O12'
_chemical_formula_sum   'H24 C24 N48 O48'
_cell_volume   1959.58499427
_cell_formula_units_Z   4
loop_
 _symmetry_equiv_pos_site_id
 _symmetry_equiv_pos_as_xyz
  1  'x, y, z'
  2  '-y, x, z+1/4'
  3  '-x, -y, z+1/2'
  4  'y, -x, z+3/4'
loop_
 _atom_site_type_symbol
 _atom_site_label
 _atom_site_symmetry_multiplicity
 _atom_site_fract_x
 _atom_site_fract_y
 _atom_site_fract_z
 _atom_site_occupancy
  H  H0  4  -0.07305101  0.37394940  0.84097170  1
  H  H1  4  0.01977901  0.34060931  1.29377391  1
  H  H2  4  0.03146661  0.48694461  0.87984602  1
  H  H3  4  0.12809066  0.19908513  0.77156737  1
  H  H4  4  0.13676075  0.24281118  1.25425522  1
  H  H5  4  0.23073142  0.31208850  0.81695613  1
  C  C6  4  -0.01375263  0.35115503  0.89561118  1
  C  C7  4  0.04105471  0.33928726  1.16774585  1
  C  C8  4  0.05357624  0.42519849  0.92448877  1
  C  C9  4  0.10485871  0.24731132  0.85649989  1
  C  C10  4  0.11808404  0.27329675  1.14052233  1
  C  C11  4  0.17204694  0.32131589  0.88618109  1
  N  N12  4  -0.10935851  0.29426564  1.11079471  1
  N  N13  4  -0.02890396  0.31833981  1.05817033  1
  N  N14  4  0.02303647  0.28232795  0.79344863  1
  N  N15  4  0.02473870  0.30110412  0.62574873  1
  N  N16  4  0.06011065  0.42559435  1.10397053  1
  N  N17  4  0.09209317  0.21084491  1.01751533  1
  N  N18  4  0.10515661  0.12285330  1.04411223  1
  N  N19  4  0.12495620  0.47291270  1.17798519  1
  N  N20  4  0.13201742  0.40180274  0.83930633  1
  N  N21  4  0.18020264  0.46494214  0.75731647  1
  N  N22  4  0.18961356  0.31786228  1.06196578  1
  N  N23  4  0.27425932  0.30073296  1.11505168  1
  O  O24  4  -0.16336094  0.28433139  1.00518645  1
  O  O25  4  -0.11867453  0.28189199  1.25600605  1
  O  O26  4  -0.02107102  0.35949144  0.57891255  1
  O  O27  4  0.07082851  0.25646058  0.54155055  1
  O  O28  4  0.07744381  0.89880779  0.67354377  1
  O  O29  4  0.10123692  0.88307311  0.93338306  1
  O  O30  4  0.13378602  0.46022019  1.32389867  1
  O  O31  4  0.14203205  0.53089216  0.72519295  1
  O  O32  4  0.16337809  0.52413031  1.09454310  1
  O  O33  4  0.25287692  0.44615013  0.72091075  1
  O  O34  4  0.27374111  0.71894396  1.00262638  1
  O  O35  4  0.31901316  0.66917431  0.77003074  1
