###############################################################################################
#
# CIF file generated by modified CIFWriter class 
# in pymatgen (v2025.03.10) https://pymatgen.org/
#
###############################################################################################
data_MACE-OFF23(L)_63a3c4aade86e0a
_symmetry_space_group_name_H-M   Pna2_1
_cell_length_a   16.22692588
_cell_length_b   8.03587248
_cell_length_c   12.50735384
_cell_angle_alpha   90.00000000
_cell_angle_beta   90.00000000
_cell_angle_gamma   90.00000000
_symmetry_Int_Tables_number   33
_chemical_formula_moiety   'C6 H6 N12 O12'
_chemical_formula_sum   'H24 C24 N48 O48'
_cell_volume   1630.92776181
_cell_formula_units_Z   4
loop_
 _symmetry_equiv_pos_site_id
 _symmetry_equiv_pos_as_xyz
  1  'x, y, z'
  2  '-x, -y, z+1/2'
  3  '-x+1/2, y+1/2, z+1/2'
  4  'x+1/2, -y+1/2, z'
loop_
 _atom_site_type_symbol
 _atom_site_label
 _atom_site_symmetry_multiplicity
 _atom_site_fract_x
 _atom_site_fract_y
 _atom_site_fract_z
 _atom_site_occupancy
  H  H0  4  -0.02140444  0.45996965  0.31012894  1
  H  H1  4  0.06974594  0.29327833  0.03166541  1
  H  H2  4  0.07968273  0.25772096  0.35715162  1
  H  H3  4  0.16618348  0.79667999  0.24987389  1
  H  H4  4  0.17863866  0.48076220  -0.00496553  1
  H  H5  4  0.23235620  0.08849223  0.78548288  1
  C  C6  4  0.03447344  0.47336216  0.26399344  1
  C  C7  4  0.08764788  0.36069843  0.10260774  1
  C  C8  4  0.10008674  0.33921782  0.29372883  1
  C  C9  4  0.14567701  0.67418888  0.22616376  1
  C  C10  4  0.15938535  0.48787847  0.07753776  1
  C  C11  4  0.21162648  0.53732627  0.25181853  1
  N  N12  4  -0.06131156  0.40668705  0.11667220  1
  N  N13  4  0.01822954  0.44793351  0.14990367  1
  N  N14  4  0.01979429  0.76471256  0.31897597  1
  N  N15  4  0.06950459  0.63630350  0.28121220  1
  N  N16  4  0.07826087  0.74085161  0.05561538  1
  N  N17  4  0.10719845  0.25021262  0.19165917  1
  N  N18  4  0.13988190  0.65774971  0.10946948  1
  N  N19  4  0.17002555  0.13625013  0.17843023  1
  N  N20  4  0.17522048  0.42146856  0.32671954  1
  N  N21  4  0.19206503  -0.04907071  0.60703740  1
  N  N22  4  0.22249961  0.35265960  0.40849052  1
  N  N23  4  0.22781635  0.45702009  0.14901038  1
  O  O24  4  -0.11586581  0.42233635  0.18131802  1
  O  O25  4  -0.06791450  0.36847672  0.02346483  1
  O  O26  4  -0.05082806  0.72794825  0.34061087  1
  O  O27  4  0.05107057  0.86416937  0.09774331  1
  O  O28  4  0.05155849  0.89870925  0.32886860  1
  O  O29  4  0.05846059  0.68281085  -0.03009457  1
  O  O30  4  0.13679289  -0.02395057  0.66967539  1
  O  O31  4  0.18595918  0.26646651  0.47205677  1
  O  O32  4  0.18681000  -0.08841196  0.51453386  1
  O  O33  4  0.18754407  0.10168854  0.08725630  1
  O  O34  4  0.20006879  0.08023355  0.25942193  1
  O  O35  4  0.20535551  -0.11197476  0.91004283  1
