###############################################################################################
#
# CIF file generated by modified CIFWriter class 
# in pymatgen (v2025.03.10) https://pymatgen.org/
#
###############################################################################################
data_MACE-OFF23(L)_6473381f07c02d1
_symmetry_space_group_name_H-M   Pna2_1
_cell_length_a   12.82291614
_cell_length_b   8.77018213
_cell_length_c   13.66525459
_cell_angle_alpha   90.00000000
_cell_angle_beta   90.00000000
_cell_angle_gamma   90.00000000
_symmetry_Int_Tables_number   33
_chemical_formula_moiety   'C6 H6 N12 O12'
_chemical_formula_sum   'H24 C24 N48 O48'
_cell_volume   1536.78510151
_cell_formula_units_Z   4
loop_
 _symmetry_equiv_pos_site_id
 _symmetry_equiv_pos_as_xyz
  1  'x, y, z'
  2  '-x, -y, z+1/2'
  3  '-x+1/2, y+1/2, z+1/2'
  4  'x+1/2, -y+1/2, z'
loop_
 _atom_site_type_symbol
 _atom_site_label
 _atom_site_symmetry_multiplicity
 _atom_site_fract_x
 _atom_site_fract_y
 _atom_site_fract_z
 _atom_site_occupancy
  H  H0  4  -0.06605727  0.60640565  0.18745752  1
  H  H1  4  0.08102371  0.76119603  0.14850587  1
  H  H2  4  0.09500173  0.68283088  0.43804330  1
  H  H3  4  0.12539842  0.22753096  0.20376342  1
  H  H4  4  0.20560636  0.46447519  0.44787472  1
  H  H5  4  0.22807928  -0.11730538  0.66038544  1
  C  C6  4  0.00419486  0.56742834  0.22298058  1
  C  C7  4  0.10095457  0.66855102  0.19737403  1
  C  C8  4  0.10105953  0.62615705  0.36817707  1
  C  C9  4  0.11928572  0.34242282  0.23200141  1
  C  C10  4  0.17483272  0.48049620  0.37491889  1
  C  C11  4  0.21587376  0.44368757  0.20476774  1
  N  N12  4  -0.08629586  0.55565877  0.38366418  1
  N  N13  4  -0.04664576  0.32735521  0.14346671  1
  N  N14  4  0.00001305  0.58517525  0.32863248  1
  N  N15  4  0.02526325  0.41199429  0.19478770  1
  N  N16  4  0.04490385  0.27730866  0.39330725  1
  N  N17  4  0.11963024  0.88694012  0.30705691  1
  N  N18  4  0.12390134  0.34298879  0.33925069  1
  N  N19  4  0.13835514  0.72893490  0.29209744  1
  N  N20  4  0.16044681  0.07885361  0.81222762  1
  N  N21  4  0.17979364  0.57626936  0.15215420  1
  N  N22  4  0.23479028  0.63113064  0.07161948  1
  N  N23  4  0.24254780  -0.01984657  0.80187650  1
  O  O24  4  -0.16388877  0.51830896  0.33951816  1
  O  O25  4  -0.12906254  0.39015214  0.12444405  1
  O  O26  4  -0.07665423  0.56869091  0.47147174  1
  O  O27  4  -0.02259635  0.19950504  0.12058574  1
  O  O28  4  -0.01731063  0.20033012  0.34888652  1
  O  O29  4  0.04638791  0.30221728  0.48036348  1
  O  O30  4  0.09981355  0.92722630  0.38881925  1
  O  O31  4  0.10703374  0.10138991  0.74019956  1
  O  O32  4  0.13015448  0.96531989  0.23513696  1
  O  O33  4  0.14671328  0.13182256  0.89283219  1
  O  O34  4  0.19529833  0.05255668  0.54166215  1
  O  O35  4  0.20609282  0.75230867  0.03858664  1
