###############################################################################################
#
# CIF file generated by modified CIFWriter class 
# in pymatgen (v2025.03.10) https://pymatgen.org/
#
###############################################################################################
data_MACE-OFF23(L)_66c400f75f10b89
_symmetry_space_group_name_H-M   Pca2_1
_cell_length_a   13.24169696
_cell_length_b   7.73569933
_cell_length_c   15.71878876
_cell_angle_alpha   90.00000000
_cell_angle_beta   90.00000000
_cell_angle_gamma   90.00000000
_symmetry_Int_Tables_number   29
_chemical_formula_moiety   'C6 H6 N12 O12'
_chemical_formula_sum   'H24 C24 N48 O48'
_cell_volume   1610.13504896
_cell_formula_units_Z   4
loop_
 _symmetry_equiv_pos_site_id
 _symmetry_equiv_pos_as_xyz
  1  'x, y, z'
  2  '-x, -y, z+1/2'
  3  '-x+1/2, y, z+1/2'
  4  'x+1/2, -y, z'
loop_
 _atom_site_type_symbol
 _atom_site_label
 _atom_site_symmetry_multiplicity
 _atom_site_fract_x
 _atom_site_fract_y
 _atom_site_fract_z
 _atom_site_occupancy
  H  H0  4  -0.09353846  0.37618143  0.40247147  1
  H  H1  4  -0.01245063  0.55824369  0.29925247  1
  H  H2  4  0.01912532  -0.09717328  0.34005091  1
  H  H3  4  0.11856322  0.02055661  0.45242653  1
  H  H4  4  0.15955571  0.21954183  0.16569945  1
  H  H5  4  0.23598596  0.33547361  0.77709936  1
  C  C6  4  -0.02909181  0.31385690  0.37363287  1
  C  C7  4  0.02501674  0.43508998  0.30596101  1
  C  C8  4  0.03634704  0.03784768  0.33002936  1
  C  C9  4  0.10299822  0.11426750  0.40297141  1
  C  C10  4  0.12099242  0.22788900  0.22623819  1
  C  C11  4  0.18921048  0.30260925  0.29923655  1
  N  N12  4  -0.13596429  0.11450919  0.28683460  1
  N  N13  4  -0.05380710  0.14436710  0.33808620  1
  N  N14  4  -0.03620643  0.34717496  0.16451570  1
  N  N15  4  0.01923408  0.26628003  0.52335413  1
  N  N16  4  0.03865668  0.35201976  0.22473276  1
  N  N17  4  0.04458680  0.26017456  0.43661582  1
  N  N18  4  0.08557270  0.05782528  0.24915427  1
  N  N19  4  0.10435121  -0.08450810  0.19776931  1
  N  N20  4  0.13204461  0.45630060  0.32426906  1
  N  N21  4  0.15990357  0.55139931  0.39381468  1
  N  N22  4  0.19687453  0.17319540  0.36558455  1
  N  N23  4  0.21336013  0.15330285  0.91003985  1
  O  O24  4  -0.21051000  0.20175258  0.29984497  1
  O  O25  4  -0.12832773  -0.00062508  0.23504512  1
  O  O26  4  -0.10939894  0.43770696  0.17832406  1
  O  O27  4  -0.04314481  0.37247025  0.54264171  1
  O  O28  4  -0.02134322  0.25450252  0.10422408  1
  O  O29  4  0.06688056  0.17185050  0.56947390  1
  O  O30  4  0.07627438  -0.22255357  0.22488165  1
  O  O31  4  0.09837089  0.65504945  0.41919172  1
  O  O32  4  0.13917794  0.22275048  0.88041563  1
  O  O33  4  0.14745604  -0.05661264  0.13168431  1
  O  O34  4  0.21540958  0.06149274  0.97189599  1
  O  O35  4  0.24314839  0.52496965  0.42273742  1
