###############################################################################################
#
# CIF file generated by modified CIFWriter class 
# in pymatgen (v2025.03.10) https://pymatgen.org/
#
###############################################################################################
data_MACE-OFF23(L)_689b75ce4be964a
_symmetry_space_group_name_H-M   P2_12_12_1
_cell_length_a   12.46391907
_cell_length_b   14.14318492
_cell_length_c   9.61999217
_cell_angle_alpha   90.00000000
_cell_angle_beta   90.00000000
_cell_angle_gamma   90.00000000
_symmetry_Int_Tables_number   19
_chemical_formula_moiety   'C6 H6 N12 O12'
_chemical_formula_sum   'H24 C24 N48 O48'
_cell_volume   1695.80752701
_cell_formula_units_Z   4
loop_
 _symmetry_equiv_pos_site_id
 _symmetry_equiv_pos_as_xyz
  1  'x, y, z'
  2  '-x, y+1/2, -z+1/2'
  3  '-x+1/2, -y, z+1/2'
  4  'x+1/2, -y+1/2, -z'
loop_
 _atom_site_type_symbol
 _atom_site_label
 _atom_site_symmetry_multiplicity
 _atom_site_fract_x
 _atom_site_fract_y
 _atom_site_fract_z
 _atom_site_occupancy
  H  H0  4  -0.16754679  0.57318116  0.72634878  1
  H  H1  4  -0.05325692  0.74111150  0.42195191  1
  H  H2  4  -0.05191630  0.58158445  0.33734670  1
  H  H3  4  -0.01173116  0.54346090  0.86123643  1
  H  H4  4  0.21742310  0.68530026  0.65841206  1
  H  H5  4  0.22258445  0.52947256  0.56656370  1
  C  C6  4  -0.09530445  0.58840900  0.66829315  1
  C  C7  4  -0.02236459  0.69154096  0.49759171  1
  C  C8  4  -0.02136784  0.58721221  0.44240152  1
  C  C9  4  0.00855293  0.56798554  0.75810895  1
  C  C10  4  0.13813737  0.65836879  0.63657990  1
  C  C11  4  0.14154770  0.55510528  0.57899373  1
  N  N12  4  -0.18394154  0.49177612  0.48903195  1
  N  N13  4  -0.17200140  0.74928207  0.64340959  1
  N  N14  4  -0.09191183  0.68514037  0.61825508  1
  N  N15  4  -0.08945999  0.53457002  0.53943997  1
  N  N16  4  0.05893580  0.41112860  0.67246291  1
  N  N17  4  0.07458308  0.65221097  0.76424023  1
  N  N18  4  0.08401911  0.50465946  0.68906560  1
  N  N19  4  0.08642086  0.71786933  0.53425159  1
  N  N20  4  0.08744088  0.55244892  0.44600021  1
  N  N21  4  0.11972371  0.81089508  0.51807613  1
  N  N22  4  0.12245831  0.67796251  0.89050611  1
  N  N23  4  0.12335203  0.49226840  0.34171147  1
  O  O24  4  -0.24967731  0.47102644  0.57499446  1
  O  O25  4  -0.23889257  0.72807486  0.72816312  1
  O  O26  4  -0.18595217  0.47641671  0.36563489  1
  O  O27  4  -0.16639198  0.82325808  0.57886658  1
  O  O28  4  -0.01373435  0.38084774  0.74396311  1
  O  O29  4  0.06199833  0.47583695  0.24789130  1
  O  O30  4  0.06381542  0.86161121  0.44914661  1
  O  O31  4  0.08269442  0.64516685  0.99430378  1
  O  O32  4  0.11264713  0.36630355  0.59125991  1
  O  O33  4  0.19471311  0.73406802  0.88204782  1
  O  O34  4  0.20494889  0.83186588  0.57126759  1
  O  O35  4  0.21471599  0.46412980  0.35227714  1
