###############################################################################################
#
# CIF file generated by modified CIFWriter class 
# in pymatgen (v2025.03.10) https://pymatgen.org/
#
###############################################################################################
data_MACE-OFF23(L)_69e388145f98293
_symmetry_space_group_name_H-M   P2_12_12
_cell_length_a   13.87821495
_cell_length_b   14.09542115
_cell_length_c   8.47805836
_cell_angle_alpha   90.00000000
_cell_angle_beta   90.00000000
_cell_angle_gamma   90.00000000
_symmetry_Int_Tables_number   18
_chemical_formula_moiety   'C6 H6 N12 O12'
_chemical_formula_sum   'H24 C24 N48 O48'
_cell_volume   1658.47171082
_cell_formula_units_Z   4
loop_
 _symmetry_equiv_pos_site_id
 _symmetry_equiv_pos_as_xyz
  1  'x, y, z'
  2  '-x, -y, z'
  3  'x+1/2, -y+1/2, -z'
  4  '-x+1/2, y+1/2, -z'
loop_
 _atom_site_type_symbol
 _atom_site_label
 _atom_site_symmetry_multiplicity
 _atom_site_fract_x
 _atom_site_fract_y
 _atom_site_fract_z
 _atom_site_occupancy
  H  H0  4  -0.05630309  0.23505349  0.36675381  1
  H  H1  4  0.05556832  0.36047894  0.33039290  1
  H  H2  4  0.09121086  0.00735625  0.19436547  1
  H  H3  4  0.12146931  0.01312399  0.47059178  1
  H  H4  4  0.18741456  0.73361289  0.60192971  1
  H  H5  4  0.22155913  0.72991323  0.87966317  1
  C  C6  4  0.01556367  0.20806443  0.34785672  1
  C  C7  4  0.09015233  0.29196668  0.32203110  1
  C  C8  4  0.10443095  0.07875587  0.23486082  1
  C  C9  4  0.12481761  0.08254196  0.41672721  1
  C  C10  4  0.21688525  0.21027086  0.19192162  1
  C  C11  4  0.23904082  0.21301606  0.37357767  1
  N  N12  4  -0.01981758  0.16147872  0.07661197  1
  N  N13  4  0.01701297  0.13722184  0.22373785  1
  N  N14  4  0.04541528  0.14327129  0.47330762  1
  N  N15  4  0.04784345  0.17967698  0.62564261  1
  N  N16  4  0.13811485  0.27811277  0.17197009  1
  N  N17  4  0.14626843  0.35226998  0.06330638  1
  N  N18  4  0.17012546  0.28224376  0.43145905  1
  N  N19  4  0.18700142  0.11544140  0.15162140  1
  N  N20  4  0.19101353  0.34713001  0.54768116  1
  N  N21  4  0.21451594  0.07625431  0.00601171  1
  N  N22  4  0.22017306  0.12017224  0.44047145  1
  N  N23  4  0.22064693  0.58227933  0.44280364  1
  O  O24  4  -0.06888027  0.23233954  0.07300211  1
  O  O25  4  -0.01027952  0.24155952  0.65384588  1
  O  O26  4  -0.00184136  0.10724007  -0.02908078  1
  O  O27  4  0.09466435  0.41964780  0.08421991  1
  O  O28  4  0.10564353  0.14541631  0.71539356  1
  O  O29  4  0.12747874  0.40141209  0.58260271  1
  O  O30  4  0.14766947  0.62545891  0.41545174  1
  O  O31  4  0.18246719  -0.00106416  -0.02386656  1
  O  O32  4  0.20123051  0.33793813  -0.04456719  1
  O  O33  4  0.22957404  0.84080479  0.39354605  1
  O  O34  4  0.22982028  0.62278112  1.07106555  1
  O  O35  4  0.24657164  0.50888165  0.38284304  1
