###############################################################################################
#
# CIF file generated by modified CIFWriter class 
# in pymatgen (v2025.03.10) https://pymatgen.org/
#
###############################################################################################
data_MACE-OFF23(L)_6abce2d4295a496
_symmetry_space_group_name_H-M   P4_3
_cell_length_a   9.42366572
_cell_length_b   9.42366572
_cell_length_c   22.91673709
_cell_angle_alpha   90.00000000
_cell_angle_beta   90.00000000
_cell_angle_gamma   90.00000000
_symmetry_Int_Tables_number   78
_chemical_formula_moiety   'C6 H6 N12 O12'
_chemical_formula_sum   'H24 C24 N48 O48'
_cell_volume   2035.13173862
_cell_formula_units_Z   4
loop_
 _symmetry_equiv_pos_site_id
 _symmetry_equiv_pos_as_xyz
  1  'x, y, z'
  2  '-y, x, z+3/4'
  3  '-x, -y, z+1/2'
  4  'y, -x, z+1/4'
loop_
 _atom_site_type_symbol
 _atom_site_label
 _atom_site_symmetry_multiplicity
 _atom_site_fract_x
 _atom_site_fract_y
 _atom_site_fract_z
 _atom_site_occupancy
  H  H0  4  0.07637677  0.69460215  0.34887162  1
  H  H1  4  0.15381955  0.26167613  0.06509861  1
  H  H2  4  0.18307495  0.29619542  0.23984506  1
  H  H3  4  0.36432807  0.36570388  0.36786874  1
  H  H4  4  0.36792976  0.45977303  0.25180027  1
  H  H5  4  0.44927501  0.48163661  0.83483935  1
  C  C6  4  0.17729402  0.67009112  0.36901264  1
  C  C7  4  0.22986704  0.29882284  0.09699027  1
  C  C8  4  0.24512728  0.30470581  0.20036617  1
  C  C9  4  0.34796211  0.47526669  0.38048321  1
  C  C10  4  0.36928448  0.41537641  0.20844001  1
  C  C11  4  0.42481696  0.47009257  0.10889089  1
  N  N12  4  0.01356663  0.36171654  0.15411509  1
  N  N13  4  0.04650919  0.76792809  0.45284671  1
  N  N14  4  0.10226362  0.42682815  0.34939579  1
  N  N15  4  0.16007370  0.34555521  0.15028668  1
  N  N16  4  0.16871800  0.69544937  0.43234363  1
  N  N17  4  0.21523246  0.52541067  0.35533904  1
  N  N18  4  0.25489503  0.61858620  0.16375417  1
  N  N19  4  0.26881711  0.48543283  0.02328826  1
  N  N20  4  0.26937765  0.42378147  0.48133284  1
  N  N21  4  0.31673900  0.40941545  0.07169391  1
  N  N22  4  0.35886700  0.49298746  0.44355179  1
  N  N23  4  0.36888435  0.52607679  0.16423549  1
  O  O24  4  -0.05602602  0.76427449  0.42170875  1
  O  O25  4  -0.04869236  0.36951382  0.10824627  1
  O  O26  4  -0.03421314  0.37206042  0.20272590  1
  O  O27  4  -0.01580888  0.47273898  0.35502200  1
  O  O28  4  0.05674693  0.82084996  0.50054155  1
  O  O29  4  0.13735052  0.30766796  0.33666159  1
  O  O30  4  0.15618963  0.45036289  0.00315550  1
  O  O31  4  0.19322845  0.63135103  0.20996050  1
  O  O32  4  0.19942389  0.32845096  0.46127812  1
  O  O33  4  0.23026868  0.67875518  0.11862886  1
  O  O34  4  0.27237412  0.46418737  0.53162550  1
  O  O35  4  0.34786271  0.57569316  0.00475467  1
