###############################################################################################
#
# CIF file generated by modified CIFWriter class 
# in pymatgen (v2025.03.10) https://pymatgen.org/
#
###############################################################################################
data_MACE-OFF23(L)_6d994560518f7a1
_symmetry_space_group_name_H-M   Pna2_1
_cell_length_a   16.22656385
_cell_length_b   12.11125998
_cell_length_c   7.87707045
_cell_angle_alpha   90.00000000
_cell_angle_beta   90.00000000
_cell_angle_gamma   90.00000000
_symmetry_Int_Tables_number   33
_chemical_formula_moiety   'C6 H6 N12 O12'
_chemical_formula_sum   'H24 C24 N48 O48'
_cell_volume   1548.03444340
_cell_formula_units_Z   4
loop_
 _symmetry_equiv_pos_site_id
 _symmetry_equiv_pos_as_xyz
  1  'x, y, z'
  2  '-x, -y, z+1/2'
  3  '-x+1/2, y+1/2, z+1/2'
  4  'x+1/2, -y+1/2, z'
loop_
 _atom_site_type_symbol
 _atom_site_label
 _atom_site_symmetry_multiplicity
 _atom_site_fract_x
 _atom_site_fract_y
 _atom_site_fract_z
 _atom_site_occupancy
  H  H0  4  -0.03379031  0.72968592  -0.16399594  1
  H  H1  4  0.04837776  0.97864289  0.15089101  1
  H  H2  4  0.10029013  0.71015199  -0.28029641  1
  H  H3  4  0.10420914  0.56206504  0.17514167  1
  H  H4  4  0.15093859  0.70284405  0.35520061  1
  H  H5  4  0.18305272  0.96191028  0.03316214  1
  C  C6  4  0.01410288  0.74513218  -0.07144361  1
  C  C7  4  0.06245000  0.89449278  0.11663147  1
  C  C8  4  0.09715761  0.64143220  0.11416587  1
  C  C9  4  0.10272265  0.73497070  -0.14849832  1
  C  C10  4  0.12877285  0.73586419  0.23623803  1
  C  C11  4  0.15091377  0.88364959  0.03754893  1
  N  N12  4  -0.06828218  0.91455666  -0.03787216  1
  N  N13  4  -0.03195366  0.56285468  0.02481743  1
  N  N14  4  0.00209240  0.85429919  -0.00288491  1
  N  N15  4  0.00655488  0.81391073  0.37863130  1
  N  N16  4  0.01122897  0.66228431  0.06543186  1
  N  N17  4  0.06861743  0.82239502  0.26298709  1
  N  N18  4  0.14229145  0.64855904  -0.04526973  1
  N  N19  4  0.14314916  0.84015595  -0.13309312  1
  N  N20  4  0.15992805  0.54863717  -0.13127299  1
  N  N21  4  0.18976787  0.80722189  0.15746275  1
  N  N22  4  0.19985578  0.87248593  -0.25866942  1
  N  N23  4  0.23239117  0.26757337  0.62847554  1
  O  O24  4  -0.11173826  0.88116891  -0.15195234  1
  O  O25  4  -0.07939945  0.99722551  0.04474721  1
  O  O26  4  -0.07119743  0.56135471  -0.10406250  1
  O  O27  4  -0.04742935  0.88290822  0.37075550  1
  O  O28  4  -0.02576341  0.49012063  0.12827928  1
  O  O29  4  0.01207640  0.73988747  0.48179603  1
  O  O30  4  0.13999561  0.46394831  -0.06226321  1
  O  O31  4  0.18955210  0.32128984  0.53340246  1
  O  O32  4  0.19592956  0.55959056  -0.26419081  1
  O  O33  4  0.20546006  0.81250728  -0.38064457  1
  O  O34  4  0.21295781  0.18444496  0.70372008  1
  O  O35  4  0.23525561  0.95822275  -0.23481076  1
