###############################################################################################
#
# CIF file generated by modified CIFWriter class 
# in pymatgen (v2025.03.10) https://pymatgen.org/
#
###############################################################################################
data_MACE-OFF23(L)_6dff3a589f504f9
_symmetry_space_group_name_H-M   P2/c
_cell_length_a   26.51907100
_cell_length_b   9.37397297
_cell_length_c   7.97484182
_cell_angle_alpha   90.00000000
_cell_angle_beta   90.00000000
_cell_angle_gamma   79.08583031
_symmetry_Int_Tables_number   13
_chemical_formula_moiety   'C6 H6 N12 O12'
_chemical_formula_sum   'H24 C24 N48 O48'
_cell_volume   1946.59952011
_cell_formula_units_Z   4
loop_
 _symmetry_equiv_pos_site_id
 _symmetry_equiv_pos_as_xyz
  1  'x, y, z'
  2  '-x, -y, -z'
  3  '-x+1/2, -y, z'
  4  'x+1/2, y, -z'
loop_
 _atom_site_type_symbol
 _atom_site_label
 _atom_site_symmetry_multiplicity
 _atom_site_fract_x
 _atom_site_fract_y
 _atom_site_fract_z
 _atom_site_occupancy
  H  H0  4  0.06640003  0.39222170  1.16308360  1
  H  H1  4  0.06797088  0.16235774  1.02937370  1
  H  H2  4  0.08078876  0.45002004  0.66713093  1
  H  H3  4  0.17085151  0.42097531  0.63258865  1
  H  H4  4  0.22438396  0.33777233  1.10763085  1
  H  H5  4  0.22574275  0.10975882  0.97568392  1
  C  C6  4  0.09616966  0.36836848  1.06885924  1
  C  C7  4  0.09704496  0.21834503  0.98143462  1
  C  C8  4  0.10102950  0.39632337  0.77420044  1
  C  C9  4  0.16118752  0.37647497  0.75064955  1
  C  C10  4  0.19004580  0.33583380  1.03551218  1
  C  C11  4  0.19087235  0.18612998  0.94856004  1
  N  N12  4  0.04279166  0.58097610  0.93411205  1
  N  N13  4  0.05048439  0.20554378  0.71421350  1
  N  N14  4  0.08677605  0.47429952  0.93094608  1
  N  N15  4  0.08820945  0.25592875  0.80641182  1
  N  N16  4  0.14571183  0.36465384  1.14539082  1
  N  N17  4  0.14688630  0.12412720  0.99825933  1
  N  N18  4  0.14892160  0.44139549  1.29466702  1
  N  N19  4  0.15325622  0.01881240  1.12445688  1
  N  N20  4  0.17920025  0.58142722  0.91224956  1
  N  N21  4  0.18140145  0.12376281  0.65417116  1
  N  N22  4  0.18664160  0.43331294  0.89029127  1
  N  N23  4  0.18760280  0.22669478  0.77215485  1
  O  O24  4  0.02478512  0.61539449  1.07183242  1
  O  O25  4  0.02711404  0.63376307  0.80209328  1
  O  O26  4  0.03617389  0.10096945  0.77099965  1
  O  O27  4  0.03813631  0.26821256  0.58454020  1
  O  O28  4  0.10860363  0.49405452  1.36001823  1
  O  O29  4  0.11452460  -0.00577607  1.18790939  1
  O  O30  4  0.16181136  0.65480728  0.79379541  1
  O  O31  4  0.16422762  0.16987703  0.51971727  1
  O  O32  4  0.19144196  0.44255881  1.34693606  1
  O  O33  4  0.19243731  0.62306153  1.04615224  1
  O  O34  4  0.19484452  -0.00143706  0.69494210  1
  O  O35  4  0.19687931  -0.03930088  1.15508769  1
