###############################################################################################
#
# CIF file generated by modified CIFWriter class 
# in pymatgen (v2025.03.10) https://pymatgen.org/
#
###############################################################################################
data_MACE-OFF23(L)_6eb8a6684aa1070
_symmetry_space_group_name_H-M   P222_1
_cell_length_a   10.55346685
_cell_length_b   15.69538068
_cell_length_c   10.87454259
_cell_angle_alpha   90.00000000
_cell_angle_beta   90.00000000
_cell_angle_gamma   90.00000000
_symmetry_Int_Tables_number   17
_chemical_formula_moiety   'C6 H6 N12 O12'
_chemical_formula_sum   'H24 C24 N48 O48'
_cell_volume   1801.26662588
_cell_formula_units_Z   4
loop_
 _symmetry_equiv_pos_site_id
 _symmetry_equiv_pos_as_xyz
  1  'x, y, z'
  2  '-x, -y, z+1/2'
  3  'x, -y, -z'
  4  '-x, y, -z+1/2'
loop_
 _atom_site_type_symbol
 _atom_site_label
 _atom_site_symmetry_multiplicity
 _atom_site_fract_x
 _atom_site_fract_y
 _atom_site_fract_z
 _atom_site_occupancy
  H  H0  4  0.05266360  0.31534446  0.61926374  1
  H  H1  4  0.10556264  0.37925764  0.42621721  1
  H  H2  4  0.14834867  0.12387782  0.39230439  1
  H  H3  4  0.36490111  0.10357172  0.43469107  1
  H  H4  4  0.43353705  0.28582130  0.69281141  1
  H  H5  4  0.48648092  0.34195704  0.49852983  1
  C  C6  4  0.13771583  0.28826233  0.57995765  1
  C  C7  4  0.17210746  0.33026014  0.45313987  1
  C  C8  4  0.18803032  0.17865052  0.43868993  1
  C  C9  4  0.33330203  0.16495671  0.46754582  1
  C  C10  4  0.36416379  0.26889255  0.62462780  1
  C  C11  4  0.39731210  0.30800882  0.49684233  1
  N  N12  4  -0.00051617  0.16060573  0.56584891  1
  N  N13  4  0.12087150  0.19722279  0.55241999  1
  N  N14  4  0.14246126  0.73697380  0.75141997  1
  N  N15  4  0.16624082  0.25716872  0.37193987  1
  N  N16  4  0.23026799  0.34591765  0.77132205  1
  N  N17  4  0.24111418  0.29665520  0.66595846  1
  N  N18  4  0.29815909  0.36606152  0.46178931  1
  N  N19  4  0.32964043  0.43828251  0.39319757  1
  N  N20  4  0.33466675  0.12022613  0.68507524  1
  N  N21  4  0.36675211  0.17849445  0.59586432  1
  N  N22  4  0.40680246  0.23408679  0.41342598  1
  N  N23  4  0.46729098  0.21353671  1.12025923  1
  O  O24  4  -0.07656372  0.20030193  0.62578496  1
  O  O25  4  -0.01323018  0.09124481  0.52122457  1
  O  O26  4  0.12826229  0.37740964  0.79127184  1
  O  O27  4  0.12965748  0.19683214  0.19255001  1
  O  O28  4  0.13314927  0.33451961  0.20806067  1
  O  O29  4  0.24187550  0.48240207  0.35997570  1
  O  O30  4  0.29944590  0.05126771  0.64861121  1
  O  O31  4  0.32450072  0.35245852  0.83408992  1
  O  O32  4  0.34886335  0.14318423  0.79009008  1
  O  O33  4  0.39943849  0.27412167  1.14083514  1
  O  O34  4  0.44051568  0.45305982  0.37974170  1
  O  O35  4  0.44131067  0.13951158  1.13253710  1
