###############################################################################################
#
# CIF file generated by modified CIFWriter class 
# in pymatgen (v2025.03.10) https://pymatgen.org/
#
###############################################################################################
data_MACE-OFF23(L)_6f4f5cc694c646a
_symmetry_space_group_name_H-M   Pcc2
_cell_length_a   22.68109454
_cell_length_b   14.56147700
_cell_length_c   7.08755549
_cell_angle_alpha   90.00000000
_cell_angle_beta   90.00000000
_cell_angle_gamma   90.00000000
_symmetry_Int_Tables_number   27
_chemical_formula_moiety   'C6 H6 N12 O12'
_chemical_formula_sum   'H24 C24 N48 O48'
_cell_volume   2340.80862841
_cell_formula_units_Z   4
loop_
 _symmetry_equiv_pos_site_id
 _symmetry_equiv_pos_as_xyz
  1  'x, y, z'
  2  '-x, -y, z'
  3  'x, -y, z+1/2'
  4  '-x, y, z+1/2'
loop_
 _atom_site_type_symbol
 _atom_site_label
 _atom_site_symmetry_multiplicity
 _atom_site_fract_x
 _atom_site_fract_y
 _atom_site_fract_z
 _atom_site_occupancy
  H  H0  4  0.18702586  0.15235138  0.65409710  1
  H  H1  4  0.18830576  0.42348591  0.48831034  1
  H  H2  4  0.23823847  0.28032401  1.12770943  1
  H  H3  4  0.23892008  0.43200972  1.04052200  1
  H  H4  4  0.29262590  0.15181594  0.65837399  1
  H  H5  4  0.29368144  0.42307412  0.49256377  1
  C  C6  4  0.20522687  0.21815244  0.69451285  1
  C  C7  4  0.20598450  0.37924893  0.59691374  1
  C  C8  4  0.23885462  0.28538849  0.97584717  1
  C  C9  4  0.23929402  0.38959398  0.91556972  1
  C  C10  4  0.27440440  0.21780697  0.69731098  1
  C  C11  4  0.27503797  0.37891092  0.59961878  1
  N  N12  4  0.13051579  0.27478414  0.47238917  1
  N  N13  4  0.13426990  0.41530224  0.85037410  1
  N  N14  4  0.16561863  0.16347171  0.99599855  1
  N  N15  4  0.18563616  0.28683971  0.56322205  1
  N  N16  4  0.18857873  0.23865011  0.89103349  1
  N  N17  4  0.19249629  0.41524557  0.78559379  1
  N  N18  4  0.28720794  0.41468072  0.78941941  1
  N  N19  4  0.28963029  0.23833299  0.89492079  1
  N  N20  4  0.29529716  0.28632695  0.56770612  1
  N  N21  4  0.31217696  0.16385240  1.00253228  1
  N  N22  4  0.34488985  0.41408423  0.85856527  1
  N  N23  4  0.35094293  0.27358904  0.48061603  1
  O  O24  4  0.09645383  0.40785035  0.73282577  1
  O  O25  4  0.10297530  0.20755155  0.51524978  1
  O  O26  4  0.11852165  0.33219286  0.35634793  1
  O  O27  4  0.12876782  0.42645210  1.01838613  1
  O  O28  4  0.14027912  0.10545331  0.90678736  1
  O  O29  4  0.17218180  0.16684899  1.16446661  1
  O  O30  4  0.30649542  0.16975635  1.17101757  1
  O  O31  4  0.33637263  0.10387710  0.91547744  1
  O  O32  4  0.34920967  0.42465593  1.02717500  1
  O  O33  4  0.36425478  0.33111962  0.36653572  1
  O  O34  4  0.37762055  0.20565196  0.52468125  1
  O  O35  4  0.38354885  0.40669303  0.74382739  1
