###############################################################################################
#
# CIF file generated by modified CIFWriter class 
# in pymatgen (v2025.03.10) https://pymatgen.org/
#
###############################################################################################
data_MACE-OFF23(L)_702cdd2286218b8
_symmetry_space_group_name_H-M   P2_1/c
_cell_length_a   13.26676576
_cell_length_b   7.65182280
_cell_length_c   14.73215761
_cell_angle_alpha   90.00000000
_cell_angle_beta   95.48447084
_cell_angle_gamma   90.00000000
_symmetry_Int_Tables_number   14
_chemical_formula_moiety   'C6 H6 N12 O12'
_chemical_formula_sum   'H24 C24 N48 O48'
_cell_volume   1488.68776062
_cell_formula_units_Z   4
loop_
 _symmetry_equiv_pos_site_id
 _symmetry_equiv_pos_as_xyz
  1  'x, y, z'
  2  '-x, -y, -z'
  3  '-x, y+1/2, -z+1/2'
  4  'x, -y+1/2, z+1/2'
loop_
 _atom_site_type_symbol
 _atom_site_label
 _atom_site_symmetry_multiplicity
 _atom_site_fract_x
 _atom_site_fract_y
 _atom_site_fract_z
 _atom_site_occupancy
  H  H0  4  0.04876199  0.62148666  0.29546881  1
  H  H1  4  0.08322628  0.32561886  0.33198576  1
  H  H2  4  0.28410623  0.77216273  0.48563940  1
  H  H3  4  0.30060242  0.49031642  0.17476573  1
  H  H4  4  0.31781312  1.02583236  1.02200447  1
  H  H5  4  0.43527573  0.57388177  0.28578134  1
  C  C6  4  0.12848643  0.90038060  0.81401564  1
  C  C7  4  0.15145244  0.40353153  0.33763365  1
  C  C8  4  0.26815646  0.81150464  0.92694266  1
  C  C9  4  0.27475956  0.99101693  0.74151544  1
  C  C10  4  0.29115555  1.00817717  0.95084847  1
  C  C11  4  0.36364721  0.56610861  0.31477446  1
  N  N12  4  0.11027514  0.85877206  0.41038341  1
  N  N13  4  0.14159402  0.34450633  0.49930708  1
  N  N14  4  0.16151005  0.79715412  0.89450970  1
  N  N15  4  0.17636178  0.76414301  0.17923461  1
  N  N16  4  0.18942020  0.62784209  0.23864413  1
  N  N17  4  0.20242916  0.38192724  0.42906881  1
  N  N18  4  0.21966698  0.35754332  0.26978664  1
  N  N19  4  0.26167420  0.19464122  0.26724371  1
  N  N20  4  0.33494222  0.77119853  0.85619346  1
  N  N21  4  0.36758323  1.05557428  0.89099941  1
  N  N22  4  0.40342489  0.63338868  0.86802665  1
  N  N23  4  0.45778558  0.36902860  0.42503917  1
  O  O24  4  0.03224337  0.61518335  0.86335866  1
  O  O25  4  0.05246008  1.17760633  0.97765485  1
  O  O26  4  0.09877971  0.65362544  0.67956527  1
  O  O27  4  0.14722137  0.94916147  0.47189921  1
  O  O28  4  0.18498463  0.33339127  0.57493509  1
  O  O29  4  0.21343253  1.42430254  0.79583834  1
  O  O30  4  0.24473672  0.71026912  0.63136025  1
  O  O31  4  0.34221353  1.31524689  0.73520269  1
  O  O32  4  0.38346274  0.52012447  0.92062195  1
  O  O33  4  0.46247137  1.18552462  1.00280620  1
  O  O34  4  0.47332022  0.86279970  0.32165382  1
  O  O35  4  0.47661563  0.63953549  0.62583046  1
