###############################################################################################
#
# CIF file generated by modified CIFWriter class 
# in pymatgen (v2025.03.10) https://pymatgen.org/
#
###############################################################################################
data_MACE-OFF23(L)_70abb5664410cdb
_symmetry_space_group_name_H-M   Pna2_1
_cell_length_a   16.99471367
_cell_length_b   7.81185561
_cell_length_c   12.17848753
_cell_angle_alpha   90.00000000
_cell_angle_beta   90.00000000
_cell_angle_gamma   90.00000000
_symmetry_Int_Tables_number   33
_chemical_formula_moiety   'C6 H6 N12 O12'
_chemical_formula_sum   'H24 C24 N48 O48'
_cell_volume   1616.81904109
_cell_formula_units_Z   4
loop_
 _symmetry_equiv_pos_site_id
 _symmetry_equiv_pos_as_xyz
  1  'x, y, z'
  2  '-x, -y, z+1/2'
  3  '-x+1/2, y+1/2, z+1/2'
  4  'x+1/2, -y+1/2, z'
loop_
 _atom_site_type_symbol
 _atom_site_label
 _atom_site_symmetry_multiplicity
 _atom_site_fract_x
 _atom_site_fract_y
 _atom_site_fract_z
 _atom_site_occupancy
  H  H0  4  0.01838970  -0.17379566  1.04963340  1
  H  H1  4  0.08092786  -0.09465505  0.72542468  1
  H  H2  4  0.14089434  -0.31390834  1.08204816  1
  H  H3  4  0.18487438  0.19865309  1.07113054  1
  H  H4  4  0.20332759  -0.23150048  0.75748943  1
  H  H5  4  0.22305993  0.23989929  0.88445957  1
  C  C6  4  0.06561637  -0.12038607  1.00114853  1
  C  C7  4  0.10263786  -0.07183197  0.80760957  1
  C  C8  4  0.14594759  -0.21238641  1.02211669  1
  C  C9  4  0.16712549  0.09253708  1.01981550  1
  C  C10  4  0.18298589  -0.16295822  0.82916068  1
  C  C11  4  0.19187526  0.12085135  0.89530513  1
  N  N12  4  -0.01801548  -0.22918425  0.85226790  1
  N  N13  4  0.02753057  0.17953137  1.02302375  1
  N  N14  4  0.04380940  -0.12570911  0.88624847  1
  N  N15  4  0.08133086  0.23898016  0.78278154  1
  N  N16  4  0.08392333  0.05459479  1.03324084  1
  N  N17  4  0.12395529  0.10547958  0.82415128  1
  N  N18  4  0.17298130  -0.28272713  0.91815747  1
  N  N19  4  0.19423653  -0.07082984  1.06255848  1
  N  N20  4  0.20135958  0.51079676  0.28070249  1
  N  N21  4  0.22422994  -0.42328657  0.92148445  1
  N  N22  4  0.22928791  0.40793097  0.59453468  1
  N  N23  4  0.23862234  -0.02492423  0.85801551  1
  O  O24  4  -0.05939727  -0.28920001  0.92313167  1
  O  O25  4  -0.03993184  0.12927996  1.02138887  1
  O  O26  4  -0.02562945  -0.24621608  0.75422815  1
  O  O27  4  0.02273414  0.19959337  0.73192794  1
  O  O28  4  0.05053728  0.32536783  1.01870379  1
  O  O29  4  0.10525410  0.38148856  0.80182608  1
  O  O30  4  0.16939815  0.64785702  0.28930613  1
  O  O31  4  0.18549398  0.39776198  0.21747877  1
  O  O32  4  0.19027446  0.53664978  0.60220033  1
  O  O33  4  0.20854085  0.26242084  0.61444308  1
  O  O34  4  0.21975183  -0.51411793  1.00124913  1
  O  O35  4  0.23380000  0.05499661  0.34260954  1
