###############################################################################################
#
# CIF file generated by modified CIFWriter class 
# in pymatgen (v2025.03.10) https://pymatgen.org/
#
###############################################################################################
data_MACE-OFF23(L)_75dc20355e8dc40
_symmetry_space_group_name_H-M   P2_1/c
_cell_length_a   7.58564228
_cell_length_b   16.23580023
_cell_length_c   15.16563501
_cell_angle_alpha   90.00000000
_cell_angle_beta   94.84592926
_cell_angle_gamma   90.00000000
_symmetry_Int_Tables_number   14
_chemical_formula_moiety   'C6 H6 N12 O12'
_chemical_formula_sum   'H24 C24 N48 O48'
_cell_volume   1861.10756215
_cell_formula_units_Z   4
loop_
 _symmetry_equiv_pos_site_id
 _symmetry_equiv_pos_as_xyz
  1  'x, y, z'
  2  '-x, -y, -z'
  3  '-x, y+1/2, -z+1/2'
  4  'x, -y+1/2, z+1/2'
loop_
 _atom_site_type_symbol
 _atom_site_label
 _atom_site_symmetry_multiplicity
 _atom_site_fract_x
 _atom_site_fract_y
 _atom_site_fract_z
 _atom_site_occupancy
  H  H0  4  0.21877044  0.15514321  0.43583394  1
  H  H1  4  0.31726846  0.85888673  0.33124095  1
  H  H2  4  0.38237538  0.35432024  0.20397571  1
  H  H3  4  0.41328944  0.11773473  -0.01604550  1
  H  H4  4  0.48085541  0.84542137  0.59813534  1
  H  H5  4  0.49315795  0.62380700  0.36205913  1
  C  C6  4  0.30423386  0.31413848  -0.01379474  1
  C  C7  4  0.40003379  0.67774095  0.87756988  1
  C  C8  4  0.40262440  0.17931727  0.64411470  1
  C  C9  4  0.42616158  0.31956305  0.50741593  1
  C  C10  4  0.48900742  0.18439740  0.10913616  1
  C  C11  4  0.49737744  0.81441264  0.53626554  1
  N  N12  4  0.11108933  0.30885207  0.45307040  1
  N  N13  4  0.13768778  0.39624995  0.08693591  1
  N  N14  4  0.19086872  0.70805302  0.38832721  1
  N  N15  4  0.26425189  0.22679434  -0.00919835  1
  N  N16  4  0.29582158  0.35603413  0.07027931  1
  N  N17  4  0.31816735  0.29408594  0.73689390  1
  N  N18  4  0.34080365  0.56417744  0.97522300  1
  N  N19  4  0.35547651  0.73565923  0.37186860  1
  N  N20  4  0.36359816  0.26728522  0.65535672  1
  N  N21  4  0.38186153  0.64729140  0.96653460  1
  N  N22  4  0.40682289  0.69651821  0.62288407  1
  N  N23  4  0.45037718  0.77253050  1.04158252  1
  O  O24  4  -0.01021889  0.23747227  -0.06779427  1
  O  O25  4  0.03373438  0.09234289  0.52368309  1
  O  O26  4  0.06989838  0.75643053  0.37491304  1
  O  O27  4  0.11203114  0.11705304  -0.05261664  1
  O  O28  4  0.12513480  0.41777947  0.16203503  1
  O  O29  4  0.18181244  0.63705892  0.41188184  1
  O  O30  4  0.25979968  0.24261011  0.78471904  1
  O  O31  4  0.30096203  0.52639590  0.90814357  1
  O  O32  4  0.33286805  0.36687752  0.75240846  1
  O  O33  4  0.34527770  0.53764618  1.04995572  1
  O  O34  4  0.35550627  0.75421138  1.17493000  1
  O  O35  4  0.41803101  0.62308421  0.63285924  1
