###############################################################################################
#
# CIF file generated by modified CIFWriter class 
# in pymatgen (v2025.03.10) https://pymatgen.org/
#
###############################################################################################
data_MACE-OFF23(L)_7a10d645e5bf90e
_symmetry_space_group_name_H-M   P2/c
_cell_length_a   15.87462786
_cell_length_b   8.90296664
_cell_length_c   12.87951658
_cell_angle_alpha   90.00000000
_cell_angle_beta   71.70223612
_cell_angle_gamma   90.00000000
_symmetry_Int_Tables_number   13
_chemical_formula_moiety   'C6 H6 N12 O12'
_chemical_formula_sum   'H24 C24 N48 O48'
_cell_volume   1728.24117846
_cell_formula_units_Z   4
loop_
 _symmetry_equiv_pos_site_id
 _symmetry_equiv_pos_as_xyz
  1  'x, y, z'
  2  '-x, -y, -z'
  3  '-x, y, -z+1/2'
  4  'x, -y, z+1/2'
loop_
 _atom_site_type_symbol
 _atom_site_label
 _atom_site_symmetry_multiplicity
 _atom_site_fract_x
 _atom_site_fract_y
 _atom_site_fract_z
 _atom_site_occupancy
  H  H0  4  0.10425084  0.19269779  0.69145971  1
  H  H1  4  0.23002141  0.72710316  0.23812793  1
  H  H2  4  0.25262721  0.55661756  -0.05817314  1
  H  H3  4  0.25673677  1.13067127  -0.01367335  1
  H  H4  4  0.33844671  0.73880215  -0.17698733  1
  H  H5  4  0.38372396  -0.04956585  0.53138215  1
  C  C6  4  0.16466144  0.81929265  0.12347299  1
  C  C7  4  0.24803348  0.76589398  0.15449244  1
  C  C8  4  0.25208028  0.33880484  0.48456624  1
  C  C9  4  0.25508814  1.01134646  0.00269484  1
  C  C10  4  0.31028387  0.21706523  0.40472708  1
  C  C11  4  0.33848901  0.95837542  0.03240412  1
  N  N12  4  0.09286243  0.61057254  0.05816297  1
  N  N13  4  0.09973000  1.06213303  0.10152332  1
  N  N14  4  0.16227028  0.71937134  0.03336565  1
  N  N15  4  0.17625804  0.97523464  0.09217144  1
  N  N16  4  0.20265907  0.93315532  -0.15086580  1
  N  N17  4  0.26295207  0.07810909  0.40475976  1
  N  N18  4  0.28470724  0.64306937  0.07774949  1
  N  N19  4  0.28758544  0.49755965  0.11889330  1
  N  N20  4  0.30927208  0.89015138  0.14009108  1
  N  N21  4  0.36301096  0.09868164  0.70701961  1
  N  N22  4  0.37784533  0.84967638  -0.05501530  1
  N  N23  4  0.45002356  0.76548305  -0.05406274  1
  O  O24  4  0.02575636  0.64425058  0.12920057  1
  O  O25  4  0.02955921  0.99706381  0.13205416  1
  O  O26  4  0.10712744  0.50066365  0.50236320  1
  O  O27  4  0.11247702  -0.19311492  0.57995610  1
  O  O28  4  0.15902557  -0.04787928  0.36320393  1
  O  O29  4  0.20144925  0.83179435  -0.21278346  1
  O  O30  4  0.28734894  0.48994077  0.21257170  1
  O  O31  4  0.29424231  0.60380064  0.55502731  1
  O  O32  4  0.35376928  0.19451318  0.77611518  1
  O  O33  4  0.41117478  -0.00949097  0.69313045  1
  O  O34  4  0.46704809  0.65840494  -0.11464503  1
  O  O35  4  0.49052894  0.80806609  0.00620075  1
