###############################################################################################
#
# CIF file generated by modified CIFWriter class 
# in pymatgen (v2025.03.10) https://pymatgen.org/
#
###############################################################################################
data_MACE-OFF23(L)_7b096761f48814b
_symmetry_space_group_name_H-M   P2/c
_cell_length_a   14.98227915
_cell_length_b   13.07734356
_cell_length_c   8.64159220
_cell_angle_alpha   90.00000000
_cell_angle_beta   95.48132977
_cell_angle_gamma   90.00000000
_symmetry_Int_Tables_number   13
_chemical_formula_moiety   'C6 H6 N12 O12'
_chemical_formula_sum   'H24 C24 N48 O48'
_cell_volume   1685.39137401
_cell_formula_units_Z   4
loop_
 _symmetry_equiv_pos_site_id
 _symmetry_equiv_pos_as_xyz
  1  'x, y, z'
  2  '-x, -y, -z'
  3  '-x, y, -z+1/2'
  4  'x, -y, z+1/2'
loop_
 _atom_site_type_symbol
 _atom_site_label
 _atom_site_symmetry_multiplicity
 _atom_site_fract_x
 _atom_site_fract_y
 _atom_site_fract_z
 _atom_site_occupancy
  H  H0  4  0.11704183  0.93412072  0.01187265  1
  H  H1  4  0.15440554  0.32476713  0.77227391  1
  H  H2  4  0.24153393  0.96456494  0.20086287  1
  H  H3  4  0.24782555  0.42325648  0.62808281  1
  H  H4  4  0.27967149  0.24344573  0.25967841  1
  H  H5  4  0.40386214  0.21150682  0.45132607  1
  C  C6  4  0.16199020  0.13057974  0.52588789  1
  C  C7  4  0.18563296  0.27791167  0.68979480  1
  C  C8  4  0.24347815  0.88973229  0.14982116  1
  C  C9  4  0.24865090  0.34414176  0.59239483  1
  C  C10  4  0.25916350  0.23585071  0.37595060  1
  C  C11  4  0.34017640  0.78523477  0.00074138  1
  N  N12  4  0.04872816  0.26754652  0.51203706  1
  N  N13  4  0.11982058  0.21846010  0.59360565  1
  N  N14  4  0.15382873  0.11407481  0.24127698  1
  N  N15  4  0.19568763  0.15339891  0.37846023  1
  N  N16  4  0.22064105  0.66824505  -0.07274485  1
  N  N17  4  0.22141737  0.41701891  0.32932637  1
  N  N18  4  0.23057585  0.80990894  0.26409154  1
  N  N19  4  0.29420095  0.20613827  0.88779704  1
  N  N20  4  0.32522000  0.11883932  0.57527172  1
  N  N21  4  0.33903326  0.69859296  0.10924037  1
  N  N22  4  0.39890763  0.94371687  0.12598815  1
  N  N23  4  0.41113435  0.37146963  0.61343125  1
  O  O24  4  0.01001573  0.21997959  0.40585248  1
  O  O25  4  0.03129045  0.35205349  0.55705928  1
  O  O26  4  0.09932335  0.04706079  0.25297463  1
  O  O27  4  0.17889067  0.85319209  -0.37814935  1
  O  O28  4  0.21918437  0.39886204  0.19204045  1
  O  O29  4  0.22063730  0.49993979  -0.10937329  1
  O  O30  4  0.29106886  0.28828956  0.95094080  1
  O  O31  4  0.34458362  0.86393414  0.42254615  1
  O  O32  4  0.38218289  -0.01986621  0.69629546  1
  O  O33  4  0.39664225  0.45593522  0.65970234  1
  O  O34  4  0.47028655  0.91610369  0.08845051  1
  O  O35  4  0.48092537  0.33784923  0.57563196  1
