###############################################################################################
#
# CIF file generated by modified CIFWriter class 
# in pymatgen (v2025.03.10) https://pymatgen.org/
#
###############################################################################################
data_MACE-OFF23(L)_7e0610b39cb9e5f
_symmetry_space_group_name_H-M   P2_1/c
_cell_length_a   7.19196464
_cell_length_b   16.29651078
_cell_length_c   15.61472949
_cell_angle_alpha   90.00000000
_cell_angle_beta   115.71351274
_cell_angle_gamma   90.00000000
_symmetry_Int_Tables_number   14
_chemical_formula_moiety   'C6 H6 N12 O12'
_chemical_formula_sum   'H24 C24 N48 O48'
_cell_volume   1648.88073165
_cell_formula_units_Z   4
loop_
 _symmetry_equiv_pos_site_id
 _symmetry_equiv_pos_as_xyz
  1  'x, y, z'
  2  '-x, -y, -z'
  3  '-x, y+1/2, -z+1/2'
  4  'x, -y+1/2, z+1/2'
loop_
 _atom_site_type_symbol
 _atom_site_label
 _atom_site_symmetry_multiplicity
 _atom_site_fract_x
 _atom_site_fract_y
 _atom_site_fract_z
 _atom_site_occupancy
  H  H0  4  0.09420381  0.21620467  0.21828204  1
  H  H1  4  0.15206852  0.67262637  0.19547805  1
  H  H2  4  0.25213929  0.21202931  0.38861537  1
  H  H3  4  0.31563149  0.88197397  0.10306692  1
  H  H4  4  0.39550126  0.92204251  0.70083121  1
  H  H5  4  0.47394431  0.88643142  0.27488092  1
  C  C6  4  0.25895975  0.22440955  0.24869709  1
  C  C7  4  0.28414270  0.70358186  0.19483517  1
  C  C8  4  0.36200310  0.22123634  0.35967871  1
  C  C9  4  0.38028096  0.82379410  0.13556015  1
  C  C10  4  0.44974893  0.63937801  0.19824834  1
  C  C11  4  0.48294817  0.82682437  0.24666944  1
  N  N12  4  0.09348048  0.73929686  0.02554486  1
  N  N13  4  0.15664791  0.36431901  0.19687548  1
  N  N14  4  0.22395938  0.76126173  0.11669685  1
  N  N15  4  0.22858653  0.08490633  0.18632503  1
  N  N16  4  0.30123117  0.30168726  0.21479819  1
  N  N17  4  0.35316013  0.15684698  0.21976565  1
  N  N18  4  0.36493993  0.76550417  0.26882774  1
  N  N19  4  0.37322802  0.35616123  0.42790327  1
  N  N20  4  0.40746675  0.74791544  0.36141567  1
  N  N21  4  0.42322589  0.07785783  0.40662452  1
  N  N22  4  0.47279881  0.29622277  0.39926511  1
  N  N23  4  0.49723693  0.65096801  0.11663967  1
  O  O24  4  -0.01183191  0.15533668  0.68951746  1
  O  O25  4  0.00825828  0.67335536  0.01556769  1
  O  O26  4  0.05145209  0.08893390  0.17310906  1
  O  O27  4  0.07195164  0.78888462  -0.03559251  1
  O  O28  4  0.21182256  0.43266512  0.18921104  1
  O  O29  4  0.22876082  0.33370426  0.44244786  1
  O  O30  4  0.28594909  0.08596526  0.43015708  1
  O  O31  4  0.31571470  0.02669042  0.17277645  1
  O  O32  4  0.34432669  0.68256435  0.37512825  1
  O  O33  4  0.44119454  0.07526015  0.93694815  1
  O  O34  4  0.49328110  0.51476642  0.09765232  1
  O  O35  4  0.49806134  0.80036478  0.41931734  1
