###############################################################################################
#
# CIF file generated by modified CIFWriter class 
# in pymatgen (v2025.03.10) https://pymatgen.org/
#
###############################################################################################
data_MACE-OFF23(L)_8068835fc81591d
_symmetry_space_group_name_H-M   P2_1/c
_cell_length_a   8.89392814
_cell_length_b   12.71768438
_cell_length_c   14.10766654
_cell_angle_alpha   90.00000000
_cell_angle_beta   68.60945230
_cell_angle_gamma   90.00000000
_symmetry_Int_Tables_number   14
_chemical_formula_moiety   'C6 H6 N12 O12'
_chemical_formula_sum   'H24 C24 N48 O48'
_cell_volume   1485.80095559
_cell_formula_units_Z   4
loop_
 _symmetry_equiv_pos_site_id
 _symmetry_equiv_pos_as_xyz
  1  'x, y, z'
  2  '-x, -y, -z'
  3  '-x, y+1/2, -z+1/2'
  4  'x, -y+1/2, z+1/2'
loop_
 _atom_site_type_symbol
 _atom_site_label
 _atom_site_symmetry_multiplicity
 _atom_site_fract_x
 _atom_site_fract_y
 _atom_site_fract_z
 _atom_site_occupancy
  H  H0  4  -0.04821912  0.63242317  0.81077520  1
  H  H1  4  0.06998410  0.48027114  0.85573605  1
  H  H2  4  0.32550916  0.95670239  0.05603374  1
  H  H3  4  0.33552200  0.68712638  0.31917046  1
  H  H4  4  0.44961713  0.83918343  0.36437077  1
  H  H5  4  0.45986448  0.35297457  0.43725703  1
  C  C6  4  0.08245429  0.86523730  0.28041833  1
  C  C7  4  0.15946101  0.96574446  0.30845376  1
  C  C8  4  0.30038553  0.92620530  0.13167732  1
  C  C9  4  0.30871274  0.75722075  0.28510139  1
  C  C10  4  0.38701549  0.64315076  0.81332349  1
  C  C11  4  0.44441503  0.85627589  0.13662086  1
  N  N12  4  0.03387930  0.68627299  0.35058975  1
  N  N13  4  0.11774259  0.79193681  0.11174842  1
  N  N14  4  0.13646413  0.77349413  0.32040278  1
  N  N15  4  0.14646119  0.87131100  0.16901028  1
  N  N16  4  0.24260257  0.52540313  0.95592467  1
  N  N17  4  0.25145986  1.00882528  0.20796469  1
  N  N18  4  0.26594344  0.93560063  0.36027430  1
  N  N19  4  0.33310958  0.38912001  0.30384473  1
  N  N20  4  0.34637398  1.09543168  0.19837714  1
  N  N21  4  0.38173751  0.75232583  0.17339753  1
  N  N22  4  0.47420453  0.66469133  0.12631192  1
  N  N23  4  0.49962496  0.60418035  0.71520612  1
  O  O24  4  -0.10872785  0.79647657  0.87665147  1
  O  O25  4  0.01157361  0.73071359  0.15528747  1
  O  O26  4  0.09765879  0.60237774  0.35051271  1
  O  O27  4  0.14674556  1.04576723  0.48600052  1
  O  O28  4  0.20086922  0.70725072  0.52174895  1
  O  O29  4  0.24516181  0.10706792  0.89202883  1
  O  O30  4  0.29538210  0.38411092  0.23026283  1
  O  O31  4  0.30979782  0.34392792  0.76890896  1
  O  O32  4  0.32008557  0.56521923  1.00096237  1
  O  O33  4  0.42660146  0.17834696  0.45759842  1
  O  O34  4  0.44038690  0.58301839  0.17300732  1
  O  O35  4  0.45828366  1.10518516  0.11719785  1
