###############################################################################################
#
# CIF file generated by modified CIFWriter class 
# in pymatgen (v2025.03.10) https://pymatgen.org/
#
###############################################################################################
data_MACE-OFF23(L)_84e591e7f8288ed
_symmetry_space_group_name_H-M   C2
_cell_length_a   9.93926363
_cell_length_b   14.17350028
_cell_length_c   14.24515273
_cell_angle_alpha   90.00000000
_cell_angle_beta   82.22409711
_cell_angle_gamma   90.00000000
_symmetry_Int_Tables_number   5
_chemical_formula_moiety   'C6 H6 N12 O12'
_chemical_formula_sum   'H24 C24 N48 O48'
_cell_volume   1988.32124109
_cell_formula_units_Z   4
loop_
 _symmetry_equiv_pos_site_id
 _symmetry_equiv_pos_as_xyz
  1  'x, y, z'
  2  '-x, y, -z'
  3  'x+1/2, y+1/2, z'
  4  '-x+1/2, y+1/2, -z'
loop_
 _atom_site_type_symbol
 _atom_site_label
 _atom_site_symmetry_multiplicity
 _atom_site_fract_x
 _atom_site_fract_y
 _atom_site_fract_z
 _atom_site_occupancy
  H  H0  4  -0.19212989  0.73949666  0.26556347  1
  H  H1  4  0.00936587  0.95050531  0.10347438  1
  H  H2  4  0.01194537  0.64454508  0.24368939  1
  H  H3  4  0.06908859  0.84899713  0.43529044  1
  H  H4  4  0.17771467  0.96808494  0.34289073  1
  H  H5  4  0.21071554  0.85702070  0.08181653  1
  C  C6  4  -0.10018426  0.78106705  0.26080459  1
  C  C7  4  0.01944828  0.90676619  0.16418953  1
  C  C8  4  0.03231402  0.71939792  0.24685698  1
  C  C9  4  0.05485703  0.83899674  0.36220878  1
  C  C10  4  0.12978257  0.91950447  0.29932577  1
  C  C11  4  0.15160506  0.84601564  0.15038647  1
  N  N12  4  -0.21553975  0.86771014  0.14428358  1
  N  N13  4  -0.17853570  0.89859827  0.38456305  1
  N  N14  4  -0.09533021  0.84432005  0.18078905  1
  N  N15  4  -0.08746446  0.82863301  0.35066139  1
  N  N16  4  0.03320159  0.96680096  0.24646821  1
  N  N17  4  0.05688027  1.06428259  0.22728213  1
  N  N18  4  0.09398185  0.74445050  0.33008141  1
  N  N19  4  0.11202759  0.69382509  0.07972012  1
  N  N20  4  0.12099027  0.74646461  0.16140359  1
  N  N21  4  0.15122066  0.42912528  0.80255080  1
  N  N22  4  0.22096563  0.71053274  0.34157056  1
  N  N23  4  0.22740950  0.87693374  0.22592869  1
  O  O24  4  -0.20678049  0.93218566  0.08803827  1
  O  O25  4  -0.14232745  0.94934376  0.44496439  1
  O  O26  4  0.01315615  1.09486537  0.15875701  1
  O  O27  4  0.06788693  0.61528041  0.09085358  1
  O  O28  4  0.09533954  0.41407454  0.88103654  1
  O  O29  4  0.11396320  1.10665457  0.28362267  1
  O  O30  4  0.11474924  0.47979746  0.74282761  1
  O  O31  4  0.15322150  0.73176788  0.00481141  1
  O  O32  4  0.18700883  0.31955849  0.16928522  1
  O  O33  4  0.21517481  0.40009567  0.35306070  1
  O  O34  4  0.22027608  0.25393834  0.60320690  1
  O  O35  4  0.24164552  0.14036696  0.70264397  1
