###############################################################################################
#
# CIF file generated by modified CIFWriter class 
# in pymatgen (v2025.03.10) https://pymatgen.org/
#
###############################################################################################
data_MACE-OFF23(L)_87e3940e9ea2ddb
_symmetry_space_group_name_H-M   P2_1/c
_cell_length_a   14.96194260
_cell_length_b   8.21983111
_cell_length_c   14.55809278
_cell_angle_alpha   90.00000000
_cell_angle_beta   122.33114684
_cell_angle_gamma   90.00000000
_symmetry_Int_Tables_number   14
_chemical_formula_moiety   'C6 H6 N12 O12'
_chemical_formula_sum   'H24 C24 N48 O48'
_cell_volume   1512.85491973
_cell_formula_units_Z   4
loop_
 _symmetry_equiv_pos_site_id
 _symmetry_equiv_pos_as_xyz
  1  'x, y, z'
  2  '-x, -y, -z'
  3  '-x, y+1/2, -z+1/2'
  4  'x, -y+1/2, z+1/2'
loop_
 _atom_site_type_symbol
 _atom_site_label
 _atom_site_symmetry_multiplicity
 _atom_site_fract_x
 _atom_site_fract_y
 _atom_site_fract_z
 _atom_site_occupancy
  H  H0  4  0.02892579  0.43130257  0.57830246  1
  H  H1  4  0.08761429  0.70697625  0.63037304  1
  H  H2  4  0.25670234  0.27294469  0.88512526  1
  H  H3  4  0.30234807  0.48524750  0.58225689  1
  H  H4  4  0.31573140  0.54618250  0.93895682  1
  H  H5  4  0.43205022  0.39149913  0.76109519  1
  C  C6  4  0.11341781  0.43947581  0.63498049  1
  C  C7  4  0.15172081  0.62005343  0.66999715  1
  C  C8  4  0.24874769  0.34534301  0.81898057  1
  C  C9  4  0.27197794  0.48247917  0.63494453  1
  C  C10  4  0.28669531  0.52495985  0.85406372  1
  C  C11  4  0.35787772  0.42046878  0.75333938  1
  N  N12  4  0.06417009  0.24986403  0.73134174  1
  N  N13  4  0.13969484  0.34446104  0.72955007  1
  N  N14  4  0.16929442  0.23592497  0.55050797  1
  N  N15  4  0.17274169  0.39315640  0.58535244  1
  N  N16  4  0.18979275  0.77891912  0.83105904  1
  N  N17  4  0.19916351  0.63300569  0.78667706  1
  N  N18  4  0.22643356  0.63812970  0.63493646  1
  N  N19  4  0.28667720  0.77669169  0.65874696  1
  N  N20  4  0.31532060  0.28372191  0.78122424  1
  N  N21  4  0.37010579  0.54303806  0.83132734  1
  N  N22  4  0.37617768  0.14381773  0.82800041  1
  N  N23  4  0.46611443  -0.11085878  0.40506054  1
  O  O24  4  -0.01737197  0.27251799  0.14527320  1
  O  O25  4  0.08596932  0.19941629  0.81904990  1
  O  O26  4  0.09140196  0.15795546  0.52632133  1
  O  O27  4  0.12844089  0.87785399  0.76770128  1
  O  O28  4  0.24196065  0.78815027  0.92885260  1
  O  O29  4  0.24431015  0.19418547  0.54547023  1
  O  O30  4  0.24838314  0.90115584  0.66634770  1
  O  O31  4  0.34829328  0.05554055  0.87459909  1
  O  O32  4  0.37134600  0.75919567  0.66756326  1
  O  O33  4  0.44654841  0.12236703  0.81266379  1
  O  O34  4  0.46310907  1.09257366  0.61050299  1
  O  O35  4  0.47036526  0.68780429  0.97884699  1
