###############################################################################################
#
# CIF file generated by modified CIFWriter class 
# in pymatgen (v2025.03.10) https://pymatgen.org/
#
###############################################################################################
data_MACE-OFF23(L)_8abac44ff85b989
_symmetry_space_group_name_H-M   Pna2_1
_cell_length_a   16.67690020
_cell_length_b   7.02022987
_cell_length_c   13.70222566
_cell_angle_alpha   90.00000000
_cell_angle_beta   90.00000000
_cell_angle_gamma   90.00000000
_symmetry_Int_Tables_number   33
_chemical_formula_moiety   'C6 H6 N12 O12'
_chemical_formula_sum   'H24 C24 N48 O48'
_cell_volume   1604.19729058
_cell_formula_units_Z   4
loop_
 _symmetry_equiv_pos_site_id
 _symmetry_equiv_pos_as_xyz
  1  'x, y, z'
  2  '-x, -y, z+1/2'
  3  '-x+1/2, y+1/2, z+1/2'
  4  'x+1/2, -y+1/2, z'
loop_
 _atom_site_type_symbol
 _atom_site_label
 _atom_site_symmetry_multiplicity
 _atom_site_fract_x
 _atom_site_fract_y
 _atom_site_fract_z
 _atom_site_occupancy
  H  H0  4  0.09110167  0.45297797  0.34714179  1
  H  H1  4  0.13274160  0.44478942  0.63542807  1
  H  H2  4  0.15457350  0.24033983  0.91799633  1
  H  H3  4  0.20605899  0.26200005  0.36782543  1
  H  H4  4  0.21084424  0.71536275  0.66009784  1
  H  H5  4  0.23209600  0.93133760  0.38500895  1
  C  C6  4  0.13283544  0.51568097  0.39840181  1
  C  C7  4  0.15841130  0.49353253  0.56738641  1
  C  C8  4  0.20896080  0.38777556  0.41291609  1
  C  C9  4  0.20966265  0.17248650  0.94123518  1
  C  C10  4  0.21085373  0.67671277  0.58387478  1
  C  C11  4  0.21526439  0.80103248  0.42123207  1
  N  N12  4  0.02340909  0.42442797  0.50941779  1
  N  N13  4  0.09585474  0.53051285  0.49594014  1
  N  N14  4  0.10781628  0.80090477  0.29899567  1
  N  N15  4  0.11706021  0.93162617  0.53836651  1
  N  N16  4  0.14651750  0.24859388  1.09792239  1
  N  N17  4  0.15198407  -0.10065075  0.85397346  1
  N  N18  4  0.15829058  0.69854925  0.36242183  1
  N  N19  4  0.18800980  0.83587877  0.52145948  1
  N  N20  4  0.20193857  0.34315320  0.51669288  1
  N  N21  4  0.20797480  0.14482907  1.04832615  1
  N  N22  4  0.21986206  -0.00424040  0.88939237  1
  N  N23  4  0.24237950  -0.26706916  1.06320508  1
  O  O24  4  -0.01849150  0.40874355  0.43843294  1
  O  O25  4  0.01024477  0.37112880  0.59117959  1
  O  O26  4  0.04524104  0.72775405  0.27802936  1
  O  O27  4  0.08358175  0.25717109  1.05546658  1
  O  O28  4  0.08781063  0.91187667  0.61810483  1
  O  O29  4  0.08814741  -0.02613127  0.86658976  1
  O  O30  4  0.09287292  1.03163543  0.47235576  1
  O  O31  4  0.13405771  0.95145147  0.27012347  1
  O  O32  4  0.16256713  0.30753218  1.17804179  1
  O  O33  4  0.16548063  -0.24797443  0.81131886  1
  O  O34  4  0.19707104  -0.35730361  1.01135087  1
  O  O35  4  0.24548163  -0.27099836  1.15141954  1
