###############################################################################################
#
# CIF file generated by modified CIFWriter class 
# in pymatgen (v2025.03.10) https://pymatgen.org/
#
###############################################################################################
data_MACE-OFF23(L)_8e4edc9253d9e30
_symmetry_space_group_name_H-M   P2_12_12_1
_cell_length_a   17.40017453
_cell_length_b   13.00676202
_cell_length_c   7.48203854
_cell_angle_alpha   90.00000000
_cell_angle_beta   90.00000000
_cell_angle_gamma   90.00000000
_symmetry_Int_Tables_number   19
_chemical_formula_moiety   'C6 H6 N12 O12'
_chemical_formula_sum   'H24 C24 N48 O48'
_cell_volume   1693.33443210
_cell_formula_units_Z   4
loop_
 _symmetry_equiv_pos_site_id
 _symmetry_equiv_pos_as_xyz
  1  'x, y, z'
  2  'x+1/2, -y+1/2, -z'
  3  '-x+1/2, -y, z+1/2'
  4  '-x, y+1/2, -z+1/2'
loop_
 _atom_site_type_symbol
 _atom_site_label
 _atom_site_symmetry_multiplicity
 _atom_site_fract_x
 _atom_site_fract_y
 _atom_site_fract_z
 _atom_site_occupancy
  H  H0  4  0.03175801  0.61825047  0.54355116  1
  H  H1  4  0.06684377  0.87088891  0.83835048  1
  H  H2  4  0.12766911  0.63066699  0.32542421  1
  H  H3  4  0.13566610  0.73653870  0.97598097  1
  H  H4  4  0.19472993  0.24350231  0.08797844  1
  H  H5  4  0.23720538  0.89627829  0.45586310  1
  C  C6  4  0.07588098  0.67172869  0.58506916  1
  C  C7  4  0.09800862  0.82484786  0.74259512  1
  C  C8  4  0.14011335  0.68026604  0.43775719  1
  C  C9  4  0.14373787  0.73622844  0.83336433  1
  C  C10  4  0.19911830  0.84011538  0.51498689  1
  C  C11  4  0.24376838  0.74951688  0.60466067  1
  N  N12  4  -0.03387311  0.76719303  0.68714740  1
  N  N13  4  0.04362375  0.77370432  0.62180314  1
  N  N14  4  0.06467091  0.58229224  0.87166465  1
  N  N15  4  0.10204250  0.83943608  0.28035709  1
  N  N16  4  0.11003030  0.64251354  0.75628556  1
  N  N17  4  0.14774377  0.89120703  0.63984994  1
  N  N18  4  0.15501475  0.78574223  0.38080075  1
  N  N19  4  0.17308079  0.98162659  0.72061900  1
  N  N20  4  0.21457792  0.65750790  0.51495716  1
  N  N21  4  0.22287828  0.29898982  0.41111537  1
  N  N22  4  0.22432715  0.74899187  0.79337411  1
  N  N23  4  0.23583895  0.41004232  -0.07168046  1
  O  O24  4  -0.07543175  0.71220135  0.60106611  1
  O  O25  4  -0.05007655  0.81759987  0.81609414  1
  O  O26  4  0.01477978  0.53114405  0.80256570  1
  O  O27  4  0.05385692  0.78749921  0.20510663  1
  O  O28  4  0.08145861  0.58438968  1.02744287  1
  O  O29  4  0.11026726  0.93121514  0.27196970  1
  O  O30  4  0.14516993  1.00384887  0.86323524  1
  O  O31  4  0.15859369  0.30938036  0.35603759  1
  O  O32  4  0.16822776  0.40039808  -0.03954745  1
  O  O33  4  0.22017586  1.03126096  0.63848421  1
  O  O34  4  0.23427762  0.52517660  0.33582112  1
  O  O35  4  0.24735106  0.32068176  0.55724046  1
