###############################################################################################
#
# CIF file generated by modified CIFWriter class 
# in pymatgen (v2025.03.10) https://pymatgen.org/
#
###############################################################################################
data_MACE-OFF23(L)_8e65e0c46a630a5
_symmetry_space_group_name_H-M   P2_1/c
_cell_length_a   12.16263544
_cell_length_b   8.16753727
_cell_length_c   15.46752739
_cell_angle_alpha   90.00000000
_cell_angle_beta   89.89616943
_cell_angle_gamma   90.00000000
_symmetry_Int_Tables_number   14
_chemical_formula_moiety   'C6 H6 N12 O12'
_chemical_formula_sum   'H24 C24 N48 O48'
_cell_volume   1536.52275115
_cell_formula_units_Z   4
loop_
 _symmetry_equiv_pos_site_id
 _symmetry_equiv_pos_as_xyz
  1  'x, y, z'
  2  '-x, -y, -z'
  3  '-x+1/2, y+1/2, -z+1/2'
  4  'x+1/2, -y+1/2, z+1/2'
loop_
 _atom_site_type_symbol
 _atom_site_label
 _atom_site_symmetry_multiplicity
 _atom_site_fract_x
 _atom_site_fract_y
 _atom_site_fract_z
 _atom_site_occupancy
  H  H0  4  0.01618792  0.20089254  1.03032352  1
  H  H1  4  0.07032296  0.78266811  0.47363329  1
  H  H2  4  0.11634380  0.44092590  1.03943430  1
  H  H3  4  0.12533625  0.85090238  0.61773038  1
  H  H4  4  0.19964053  -0.08040182  0.86729774  1
  H  H5  4  0.24605000  0.35123261  0.48868974  1
  C  C6  4  0.09932688  0.18083756  1.00838038  1
  C  C7  4  0.15228327  0.73966836  0.48838215  1
  C  C8  4  0.16760127  0.34395276  1.01424824  1
  C  C9  4  0.18814991  0.78424646  0.58263643  1
  C  C10  4  0.20723384  0.02612508  0.90827951  1
  C  C11  4  0.24306261  -0.01873100  1.00239631  1
  N  N12  4  0.04852004  0.18102844  0.85485375  1
  N  N13  4  0.07666746  0.48805303  0.42750414  1
  N  N14  4  0.10111510  0.10468684  0.92345097  1
  N  N15  4  0.15026430  0.04341153  1.05286902  1
  N  N16  4  0.15496508  0.56468314  0.47835794  1
  N  N17  4  0.15516141  0.04507178  1.14246491  1
  N  N18  4  0.16531075  0.60202551  0.70811976  1
  N  N19  4  0.19527233  0.96648138  0.39087185  1
  N  N20  4  0.21287286  0.38544286  0.92914838  1
  N  N21  4  0.21515069  0.63826895  0.62989017  1
  N  N22  4  0.22576092  0.55597202  0.91718304  1
  N  N23  4  0.23393761  0.82101099  0.43279156  1
  O  O24  4  -0.02195412  0.27895995  0.87489450  1
  O  O25  4  0.01084659  0.57493994  0.39114271  1
  O  O26  4  0.07487679  0.13759667  0.78354556  1
  O  O27  4  0.07653773  0.33983677  0.42775850  1
  O  O28  4  0.08824662  0.13088270  1.17819462  1
  O  O29  4  0.09874223  0.96832718  0.37389042  1
  O  O30  4  0.10379775  0.70353495  0.73759100  1
  O  O31  4  0.14602105  0.63758603  0.93501806  1
  O  O32  4  0.18741571  0.47024125  0.73972093  1
  O  O33  4  0.18780029  1.10584846  0.61044751  1
  O  O34  4  0.22300398  -0.04369242  1.17494486  1
  O  O35  4  0.23626839  0.56837156  1.12513430  1
