###############################################################################################
#
# CIF file generated by modified CIFWriter class 
# in pymatgen (v2025.03.10) https://pymatgen.org/
#
###############################################################################################
data_MACE-OFF23(L)_8e8375e179b557c
_symmetry_space_group_name_H-M   P2_1/c
_cell_length_a   13.14679796
_cell_length_b   14.03079610
_cell_length_c   13.28538941
_cell_angle_alpha   90.00000000
_cell_angle_beta   86.63209723
_cell_angle_gamma   90.00000000
_symmetry_Int_Tables_number   14
_chemical_formula_moiety   'C6 H6 N12 O12'
_chemical_formula_sum   'H24 C24 N48 O48'
_cell_volume   2446.39099763
_cell_formula_units_Z   4
loop_
 _symmetry_equiv_pos_site_id
 _symmetry_equiv_pos_as_xyz
  1  'x, y, z'
  2  '-x, -y, -z'
  3  '-x, y+1/2, -z+1/2'
  4  'x, -y+1/2, z+1/2'
loop_
 _atom_site_type_symbol
 _atom_site_label
 _atom_site_symmetry_multiplicity
 _atom_site_fract_x
 _atom_site_fract_y
 _atom_site_fract_z
 _atom_site_occupancy
  H  H0  4  -0.08948794  0.18208154  0.17900525  1
  H  H1  4  0.03765677  0.43654572  0.63752558  1
  H  H2  4  0.10338974  0.19579052  0.87800555  1
  H  H3  4  0.12291497  0.31174213  -0.00207593  1
  H  H4  4  0.23137313  0.31108689  0.83333323  1
  H  H5  4  0.23376984  0.11990150  0.61031503  1
  C  C6  4  -0.01272114  0.29109478  0.68335730  1
  C  C7  4  0.07016109  0.36815320  0.65509767  1
  C  C8  4  0.10115760  0.21805313  0.80070655  1
  C  C9  4  0.11372902  0.27832821  0.07106908  1
  C  C10  4  0.18494135  0.29351344  0.77149349  1
  C  C11  4  0.18715151  0.17476739  0.64670495  1
  N  N12  4  -0.08217799  0.27984969  0.34122339  1
  N  N13  4  -0.06568019  0.17212056  0.55784013  1
  N  N14  4  0.00262731  0.26018242  0.78594729  1
  N  N15  4  0.00961601  0.28505847  0.11112090  1
  N  N16  4  0.12209929  0.45322329  0.80464832  1
  N  N17  4  0.12225997  0.32530874  0.56661916  1
  N  N18  4  0.12653295  0.36158142  0.23341093  1
  N  N19  4  0.14008912  0.11973352  0.23518585  1
  N  N20  4  0.14719293  0.45067148  0.27233690  1
  N  N21  4  0.20878612  0.13183236  0.02358333  1
  N  N22  4  0.24827092  0.25099481  0.19045268  1
  N  N23  4  0.34871840  0.27793811  0.21480542  1
  O  O24  4  -0.16448126  0.23992835  0.81357253  1
  O  O25  4  -0.15176077  0.18644008  0.58953622  1
  O  O26  4  -0.06284225  0.32718277  0.41388098  1
  O  O27  4  -0.03621336  0.12207036  0.48787244  1
  O  O28  4  0.06483704  -0.01610788  0.28122187  1
  O  O29  4  0.11478014  0.46562502  0.35828998  1
  O  O30  4  0.16700120  0.44958215  0.88133541  1
  O  O31  4  0.19167459  -0.00597317  0.71633018  1
  O  O32  4  0.22538005  0.44869175  0.54755053  1
  O  O33  4  0.25794367  0.31930322  0.46210620  1
  O  O34  4  0.38569412  0.34399121  0.16792104  1
  O  O35  4  0.38731895  0.27126646  0.77578553  1
