###############################################################################################
#
# CIF file generated by modified CIFWriter class 
# in pymatgen (v2025.03.10) https://pymatgen.org/
#
###############################################################################################
data_MACE-OFF23(L)_8eb22570cdb1ca4
_symmetry_space_group_name_H-M   P2_1/c
_cell_length_a   14.58242394
_cell_length_b   7.84522119
_cell_length_c   13.22462275
_cell_angle_alpha   90.00000000
_cell_angle_beta   88.32386332
_cell_angle_gamma   90.00000000
_symmetry_Int_Tables_number   14
_chemical_formula_moiety   'C6 H6 N12 O12'
_chemical_formula_sum   'H24 C24 N48 O48'
_cell_volume   1512.28046646
_cell_formula_units_Z   4
loop_
 _symmetry_equiv_pos_site_id
 _symmetry_equiv_pos_as_xyz
  1  'x, y, z'
  2  '-x, -y, -z'
  3  '-x, y+1/2, -z+1/2'
  4  'x, -y+1/2, z+1/2'
loop_
 _atom_site_type_symbol
 _atom_site_label
 _atom_site_symmetry_multiplicity
 _atom_site_fract_x
 _atom_site_fract_y
 _atom_site_fract_z
 _atom_site_occupancy
  H  H0  4  0.07373394  0.49883664  -0.00425237  1
  H  H1  4  0.20051150  0.61146693  -0.09823730  1
  H  H2  4  0.20827105  0.81080452  0.18530539  1
  H  H3  4  0.24761353  0.33384775  0.64042727  1
  H  H4  4  0.31029167  0.62028158  0.26791476  1
  H  H5  4  0.37529326  0.21500325  0.54782127  1
  C  C6  4  0.13520557  0.00184299  0.53917566  1
  C  C7  4  0.21646015  0.69186968  0.14488519  1
  C  C8  4  0.21875041  0.57494052  -0.02272411  1
  C  C9  4  0.23823809  0.30038011  0.12530722  1
  C  C10  4  0.28399950  0.56524372  0.19975934  1
  C  C11  4  0.32239486  0.37839644  0.06486282  1
  N  N12  4  0.06539890  0.58612961  0.20230412  1
  N  N13  4  0.09342438  0.19384214  0.05690512  1
  N  N14  4  0.12840528  -0.11379230  0.62543192  1
  N  N15  4  0.15661719  0.17458549  0.56827095  1
  N  N16  4  0.19203663  0.14351192  0.80360890  1
  N  N17  4  0.24006696  0.09903268  0.71757906  1
  N  N18  4  0.24170088  0.72105564  0.03927594  1
  N  N19  4  0.29205347  0.45070515  -0.02848524  1
  N  N20  4  0.31437268  0.82421534  0.01346750  1
  N  N21  4  0.32929900  0.39818375  -0.12011151  1
  N  N22  4  0.35773521  -0.01434847  0.62978860  1
  N  N23  4  0.44506333  0.48672231  0.17167093  1
  O  O24  4  0.00464740  0.01428400  0.68531724  1
  O  O25  4  0.02570901  0.22800489  0.01046007  1
  O  O26  4  0.07657235  0.66489696  0.27984665  1
  O  O27  4  0.11354550  0.44213240  0.59245669  1
  O  O28  4  0.13995795  0.26333529  0.79661174  1
  O  O29  4  0.20618469  0.43721618  0.37971461  1
  O  O30  4  0.30306625  0.02904216  0.30521166  1
  O  O31  4  0.33742694  -0.42433435  0.57787878  1
  O  O32  4  0.34754625  -0.30759685  0.42938856  1
  O  O33  4  0.38297870  0.28045830  -0.11928123  1
  O  O34  4  0.45939388  -0.05926332  0.74933510  1
  O  O35  4  0.49705834  0.39828830  0.12191165  1
