###############################################################################################
#
# CIF file generated by modified CIFWriter class 
# in pymatgen (v2025.03.10) https://pymatgen.org/
#
###############################################################################################
data_MACE-OFF23(L)_8f2045acfa1603d
_symmetry_space_group_name_H-M   P2_1/c
_cell_length_a   7.92124686
_cell_length_b   8.18296781
_cell_length_c   24.49525377
_cell_angle_alpha   90.00000000
_cell_angle_beta   91.70122242
_cell_angle_gamma   90.00000000
_symmetry_Int_Tables_number   14
_chemical_formula_moiety   'C6 H6 N12 O12'
_chemical_formula_sum   'H24 C24 N48 O48'
_cell_volume   1587.06555626
_cell_formula_units_Z   4
loop_
 _symmetry_equiv_pos_site_id
 _symmetry_equiv_pos_as_xyz
  1  'x, y, z'
  2  '-x, -y, -z'
  3  '-x, y+1/2, -z+1/2'
  4  'x, -y+1/2, z+1/2'
loop_
 _atom_site_type_symbol
 _atom_site_label
 _atom_site_symmetry_multiplicity
 _atom_site_fract_x
 _atom_site_fract_y
 _atom_site_fract_z
 _atom_site_occupancy
  H  H0  4  -0.10486163  0.43735281  0.65533050  1
  H  H1  4  0.02102645  -0.17824530  0.11876893  1
  H  H2  4  0.21580084  0.14401000  0.56836983  1
  H  H3  4  0.32957511  0.38486159  0.52696761  1
  H  H4  4  0.35344833  0.50757898  0.73244998  1
  H  H5  4  0.46845770  0.65915799  0.31829031  1
  C  C6  4  0.02810396  0.42124294  0.64826495  1
  C  C7  4  0.10918171  -0.07787266  0.12372011  1
  C  C8  4  0.21939407  0.25171518  0.09553351  1
  C  C9  4  0.29478667  0.47596809  0.69343339  1
  C  C10  4  0.29629625  0.09624976  0.06897963  1
  C  C11  4  0.41509377  0.36539631  0.65910728  1
  N  N12  4  -0.08041803  0.17532077  0.60080234  1
  N  N13  4  0.05037027  0.21468346  0.11158781  1
  N  N14  4  0.10442795  0.27091556  0.73170074  1
  N  N15  4  0.12703720  0.40584787  0.69922580  1
  N  N16  4  0.12820294  -0.12242909  0.02518327  1
  N  N17  4  0.17888828  0.53926314  0.57148936  1
  N  N18  4  0.23808801  0.76890919  0.69073873  1
  N  N19  4  0.24798621  0.62093983  0.66202186  1
  N  N20  4  0.32851106  0.21444156  0.64392126  1
  N  N21  4  0.43063634  0.42687749  0.14318516  1
  N  N22  4  0.44454974  0.42866989  0.60445138  1
  N  N23  4  0.45511032  0.43655512  0.40289143  1
  O  O24  4  -0.21866362  0.21482385  0.61579143  1
  O  O25  4  -0.04476409  0.05332943  0.57622752  1
  O  O26  4  -0.02408264  0.30682327  0.22296349  1
  O  O27  4  0.03228142  0.73563859  0.53044209  1
  O  O28  4  0.13149074  0.86570777  0.67532060  1
  O  O29  4  0.18211928  0.57379624  0.48216815  1
  O  O30  4  0.21173102  0.25545480  0.26651608  1
  O  O31  4  0.34365574  -0.28821315  0.22641033  1
  O  O32  4  0.35746511  0.40330261  0.36562953  1
  O  O33  4  0.40148986  0.52509564  0.10725081  1
  O  O34  4  0.46821572  0.93856120  0.31955594  1
  O  O35  4  0.47294233  0.36554554  0.44600276  1
