###############################################################################################
#
# CIF file generated by modified CIFWriter class 
# in pymatgen (v2025.03.10) https://pymatgen.org/
#
###############################################################################################
data_MACE-OFF23(L)_8f56aa747a5583e
_symmetry_space_group_name_H-M   P2_12_12
_cell_length_a   15.13547712
_cell_length_b   14.44739343
_cell_length_c   7.78111686
_cell_angle_alpha   90.00000000
_cell_angle_beta   90.00000000
_cell_angle_gamma   90.00000000
_symmetry_Int_Tables_number   18
_chemical_formula_moiety   'C6 H6 N12 O12'
_chemical_formula_sum   'H24 C24 N48 O48'
_cell_volume   1701.48276120
_cell_formula_units_Z   4
loop_
 _symmetry_equiv_pos_site_id
 _symmetry_equiv_pos_as_xyz
  1  'x, y, z'
  2  '-x, -y, z'
  3  '-x+1/2, y+1/2, -z'
  4  'x+1/2, -y+1/2, -z'
loop_
 _atom_site_type_symbol
 _atom_site_label
 _atom_site_symmetry_multiplicity
 _atom_site_fract_x
 _atom_site_fract_y
 _atom_site_fract_z
 _atom_site_occupancy
  H  H0  4  0.09097970  0.54964259  0.43684546  1
  H  H1  4  0.09563508  0.69473239  0.29397750  1
  H  H2  4  0.13653541  0.02152660  0.95037901  1
  H  H3  4  0.13767867  0.22006754  0.59201866  1
  H  H4  4  0.14243451  0.07484429  0.44449500  1
  H  H5  4  0.21113073  0.50178600  -0.01352993  1
  C  C6  4  0.15458290  0.56275256  0.37888683  1
  C  C7  4  0.15722874  0.65726807  0.28365274  1
  C  C8  4  0.17808961  0.05088265  0.85132130  1
  C  C9  4  0.18447315  0.17226372  0.64855658  1
  C  C10  4  0.18777385  0.07710273  0.55170323  1
  C  C11  4  0.22047602  0.53943819  0.10501425  1
  N  N12  4  0.08652125  0.19060014  0.90226591  1
  N  N13  4  0.08998719  -0.04670525  0.65477919  1
  N  N14  4  0.11818341  0.42124551  0.21585490  1
  N  N15  4  0.15930659  0.14806677  0.82196758  1
  N  N16  4  0.16155344  0.01062824  0.68318657  1
  N  N17  4  0.17309097  0.62759515  0.10733735  1
  N  N18  4  0.17440451  0.49487081  0.24582723  1
  N  N19  4  0.18964063  0.69330305  -0.01829076  1
  N  N20  4  0.20686602  0.76918876  0.49069887  1
  N  N21  4  0.21182482  0.49937385  0.64584371  1
  N  N22  4  0.22293219  0.56298865  0.51039539  1
  N  N23  4  0.22856183  0.71620700  0.34656682  1
  O  O24  4  0.05598484  0.25689104  0.83047443  1
  O  O25  4  0.05608845  -0.08103528  0.78026025  1
  O  O26  4  0.06226889  0.40723140  0.32438452  1
  O  O27  4  0.06548421  0.15710430  1.03777760  1
  O  O28  4  0.06933572  -0.05878908  0.50683953  1
  O  O29  4  0.13215051  0.37628110  0.08844253  1
  O  O30  4  0.13219648  0.76351640  0.54359663  1
  O  O31  4  0.13686525  0.48175457  0.68560265  1
  O  O32  4  0.16267387  0.77017812  0.00918029  1
  O  O33  4  0.22168706  -0.02862635  0.28532278  1
  O  O34  4  0.22759994  0.66528460  -0.14564042  1
  O  O35  4  0.23475902  0.31796598  0.45235653  1
