###############################################################################################
#
# CIF file generated by modified CIFWriter class 
# in pymatgen (v2025.03.10) https://pymatgen.org/
#
###############################################################################################
data_MACE-OFF23(L)_900f9b94fecc650
_symmetry_space_group_name_H-M   P2_1/c
_cell_length_a   14.72949161
_cell_length_b   8.13729921
_cell_length_c   13.74634635
_cell_angle_alpha   90.00000000
_cell_angle_beta   75.15967088
_cell_angle_gamma   90.00000000
_symmetry_Int_Tables_number   14
_chemical_formula_moiety   'C6 H6 N12 O12'
_chemical_formula_sum   'H24 C24 N48 O48'
_cell_volume   1592.65456718
_cell_formula_units_Z   4
loop_
 _symmetry_equiv_pos_site_id
 _symmetry_equiv_pos_as_xyz
  1  'x, y, z'
  2  '-x, -y, -z'
  3  '-x, y+1/2, -z+1/2'
  4  'x, -y+1/2, z+1/2'
loop_
 _atom_site_type_symbol
 _atom_site_label
 _atom_site_symmetry_multiplicity
 _atom_site_fract_x
 _atom_site_fract_y
 _atom_site_fract_z
 _atom_site_occupancy
  H  H0  4  0.11113178  0.46010181  0.59942173  1
  H  H1  4  0.13336071  0.21772189  0.49809746  1
  H  H2  4  0.23366635  0.73859888  0.34793632  1
  H  H3  4  0.25104948  0.49804252  0.24602138  1
  H  H4  4  0.38633348  0.32947935  0.53917518  1
  H  H5  4  0.45437254  0.49693113  0.39827893  1
  C  C6  4  0.17418123  0.03492947  1.03863410  1
  C  C7  4  0.18819800  0.19253190  0.97152354  1
  C  C8  4  0.24655155  -0.13027880  0.88776377  1
  C  C9  4  0.25877996  0.47294959  0.32072290  1
  C  C10  4  0.33393547  0.37607193  0.50395520  1
  C  C11  4  0.37950408  0.01571653  0.90889760  1
  N  N12  4  0.08425224  0.67897965  0.48168500  1
  N  N13  4  0.15734831  0.23980099  0.30985389  1
  N  N14  4  0.17119626  0.61151800  0.47891064  1
  N  N15  4  0.18841509  0.35491629  0.37011693  1
  N  N16  4  0.25855765  0.46114452  0.57504230  1
  N  N17  4  0.27836780  0.09169342  0.52888146  1
  N  N18  4  0.27956461  -0.09209304  1.12878425  1
  N  N19  4  0.27983723  0.24141417  0.47653989  1
  N  N20  4  0.33406897  -0.14385820  0.91808504  1
  N  N21  4  0.35584473  0.42737873  0.31789207  1
  N  N22  4  0.39025476  0.78346996  0.39151729  1
  N  N23  4  0.39239063  0.22121943  0.77750867  1
  O  O24  4  0.02061990  -0.14628556  1.05504018  1
  O  O25  4  0.07882249  0.76684061  0.41292132  1
  O  O26  4  0.13436149  0.39322062  0.84565449  1
  O  O27  4  0.15499576  0.21269358  0.72700428  1
  O  O28  4  0.21031423  0.00541974  0.53547968  1
  O  O29  4  0.21316103  -0.16990611  1.17694886  1
  O  O30  4  0.34742443  0.05924118  0.55662388  1
  O  O31  4  0.35198551  0.21071675  0.22271428  1
  O  O32  4  0.35722798  -0.39714525  0.85565730  1
  O  O33  4  0.36174029  0.61401313  0.62409076  1
  O  O34  4  0.46280349  0.26566004  0.79961053  1
  O  O35  4  0.46498493  0.77957320  0.41209459  1
