###############################################################################################
#
# CIF file generated by modified CIFWriter class 
# in pymatgen (v2025.03.10) https://pymatgen.org/
#
###############################################################################################
data_MACE-OFF23(L)_940ee155ce2fe0a
_symmetry_space_group_name_H-M   P2_1/c
_cell_length_a   8.19409653
_cell_length_b   14.00571656
_cell_length_c   13.95448274
_cell_angle_alpha   90.00000000
_cell_angle_beta   80.20547857
_cell_angle_gamma   90.00000000
_symmetry_Int_Tables_number   14
_chemical_formula_moiety   'C6 H6 N12 O12'
_chemical_formula_sum   'H24 C24 N48 O48'
_cell_volume   1578.13212959
_cell_formula_units_Z   4
loop_
 _symmetry_equiv_pos_site_id
 _symmetry_equiv_pos_as_xyz
  1  'x, y, z'
  2  '-x, -y, -z'
  3  '-x, y+1/2, -z+1/2'
  4  'x, -y+1/2, z+1/2'
loop_
 _atom_site_type_symbol
 _atom_site_label
 _atom_site_symmetry_multiplicity
 _atom_site_fract_x
 _atom_site_fract_y
 _atom_site_fract_z
 _atom_site_occupancy
  H  H0  4  0.02530041  0.79393225  0.32278164  1
  H  H1  4  0.17770417  1.06794223  0.37855934  1
  H  H2  4  0.29864628  0.73626662  0.32441758  1
  H  H3  4  0.31010043  0.62809086  0.56716292  1
  H  H4  4  0.38862668  1.03090786  0.10066509  1
  H  H5  4  0.45107027  1.01052506  0.37914466  1
  C  C6  4  0.11940091  0.84577839  0.29580475  1
  C  C7  4  0.20791744  0.49107240  0.82872889  1
  C  C8  4  0.29275459  0.61350610  0.64433805  1
  C  C9  4  0.29820909  0.80827790  0.29684369  1
  C  C10  4  0.34729274  0.50876914  0.66669117  1
  C  C11  4  0.38910072  0.52846697  0.82865497  1
  N  N12  4  -0.06402524  0.55050818  0.90753264  1
  N  N13  4  -0.00763575  0.59405744  0.66010306  1
  N  N14  4  0.09469977  0.93053720  0.35668182  1
  N  N15  4  0.12480944  0.86471526  0.19233283  1
  N  N16  4  0.15962978  1.12919858  0.20626540  1
  N  N17  4  0.20997347  1.03826404  0.22822296  1
  N  N18  4  0.37124609  0.81417131  0.19512758  1
  N  N19  4  0.38522616  0.65381803  0.95056456  1
  N  N20  4  0.38991351  0.87016543  0.35274300  1
  N  N21  4  0.39455017  0.55043502  0.28905615  1
  N  N22  4  0.47293217  0.51388161  0.72870051  1
  N  N23  4  0.47349583  0.28075599  0.33936052  1
  O  O24  4  -0.15161116  0.88132333  0.43044274  1
  O  O25  4  -0.14012776  0.60050176  0.71387033  1
  O  O26  4  -0.09662339  1.03189749  0.42874945  1
  O  O27  4  0.02051260  0.94295565  0.08091198  1
  O  O28  4  0.06435964  1.16818083  0.26999412  1
  O  O29  4  0.20827458  0.34252316  0.62490004  1
  O  O30  4  0.31680924  0.72804699  0.97766782  1
  O  O31  4  0.32337733  0.56801194  0.22237828  1
  O  O32  4  0.35968389  0.57995914  0.37139135  1
  O  O33  4  0.40846598  0.19072053  0.91819024  1
  O  O34  4  0.41724241  0.27606077  0.78758206  1
  O  O35  4  0.45409531  0.89983216  0.49804667  1
