###############################################################################################
#
# CIF file generated by modified CIFWriter class 
# in pymatgen (v2025.03.10) https://pymatgen.org/
#
###############################################################################################
data_MACE-OFF23(L)_943c4498e98ba29
_symmetry_space_group_name_H-M   P4_2
_cell_length_a   14.76125016
_cell_length_b   14.76125016
_cell_length_c   7.68264545
_cell_angle_alpha   90.00000000
_cell_angle_beta   90.00000000
_cell_angle_gamma   90.00000000
_symmetry_Int_Tables_number   77
_chemical_formula_moiety   'C6 H6 N12 O12'
_chemical_formula_sum   'H24 C24 N48 O48'
_cell_volume   1674.00623687
_cell_formula_units_Z   4
loop_
 _symmetry_equiv_pos_site_id
 _symmetry_equiv_pos_as_xyz
  1  'x, y, z'
  2  '-y, x, z+1/2'
  3  '-x, -y, z'
  4  'y, -x, z+1/2'
loop_
 _atom_site_type_symbol
 _atom_site_label
 _atom_site_symmetry_multiplicity
 _atom_site_fract_x
 _atom_site_fract_y
 _atom_site_fract_z
 _atom_site_occupancy
  H  H0  4  0.10900023  0.20687452  0.73078573  1
  H  H1  4  0.11690139  0.25595463  0.43945263  1
  H  H2  4  0.18035669  0.62883845  0.35974137  1
  H  H3  4  0.27216174  0.61611969  -0.15156480  1
  H  H4  4  0.32510001  0.32560101  0.95066902  1
  H  H5  4  0.34103085  0.41797463  0.44350516  1
  C  C6  4  0.17562211  0.23263512  0.69999602  1
  C  C7  4  0.18075919  0.26631225  0.50554891  1
  C  C8  4  0.21385423  0.66854094  0.26059108  1
  C  C9  4  0.26888085  0.66028675  -0.03983276  1
  C  C10  4  0.30073653  0.31021915  0.82152173  1
  C  C11  4  0.30947677  0.36510223  0.51942414  1
  N  N12  4  0.08777077  0.77479282  0.32512695  1
  N  N13  4  0.15086874  0.55757678  0.05776286  1
  N  N14  4  0.15114607  0.32254581  0.96655310  1
  N  N15  4  0.15583836  0.43002540  0.53523935  1
  N  N16  4  0.16586624  0.75383160  0.22986969  1
  N  N17  4  0.19316711  0.75825617  -0.25430436  1
  N  N18  4  0.20178195  0.30642342  0.81595430  1
  N  N19  4  0.21220787  0.35934744  0.48854844  1
  N  N20  4  0.22147134  0.74467764  -0.08411674  1
  N  N21  4  0.22401767  0.61476284  0.10310535  1
  N  N22  4  0.33410649  0.37750215  0.70058197  1
  N  N23  4  0.35930324  0.46234093  0.76021999  1
  O  O24  4  0.04613942  0.71131505  0.38287376  1
  O  O25  4  0.06820872  0.85402665  0.33385073  1
  O  O26  4  0.07260892  0.30139497  0.96017291  1
  O  O27  4  0.07767990  0.41063299  0.55795519  1
  O  O28  4  0.09831188  0.53958331  0.17176025  1
  O  O29  4  0.15050258  0.53003887  -0.09041977  1
  O  O30  4  0.16505561  0.83258003  -0.29150038  1
  O  O31  4  0.19050484  0.35909142  1.08570794  1
  O  O32  4  0.19142383  0.50394709  0.54292101  1
  O  O33  4  0.19510113  0.69293565  -0.35020515  1
  O  O34  4  0.35942157  0.47399216  0.91628018  1
  O  O35  4  0.38159883  0.51760869  0.65197922  1
