###############################################################################################
#
# CIF file generated by modified CIFWriter class 
# in pymatgen (v2025.03.10) https://pymatgen.org/
#
###############################################################################################
data_MACE-OFF23(L)_95d79173f8f03ba
_symmetry_space_group_name_H-M   P2_1/c
_cell_length_a   12.73968014
_cell_length_b   9.99672250
_cell_length_c   13.03466424
_cell_angle_alpha   90.00000000
_cell_angle_beta   81.49668182
_cell_angle_gamma   90.00000000
_symmetry_Int_Tables_number   14
_chemical_formula_moiety   'C6 H6 N12 O12'
_chemical_formula_sum   'H24 C24 N48 O48'
_cell_volume   1641.78206654
_cell_formula_units_Z   4
loop_
 _symmetry_equiv_pos_site_id
 _symmetry_equiv_pos_as_xyz
  1  'x, y, z'
  2  '-x, -y, -z'
  3  '-x, y+1/2, -z+1/2'
  4  'x, -y+1/2, z+1/2'
loop_
 _atom_site_type_symbol
 _atom_site_label
 _atom_site_symmetry_multiplicity
 _atom_site_fract_x
 _atom_site_fract_y
 _atom_site_fract_z
 _atom_site_occupancy
  H  H0  4  0.10086535  0.57039956  0.27746069  1
  H  H1  4  0.13550168  0.79689126  0.22575780  1
  H  H2  4  0.22941642  0.56475024  -0.02301747  1
  H  H3  4  0.40930509  0.53323401  -0.01430101  1
  H  H4  4  0.41882864  0.51774354  0.29806236  1
  H  H5  4  0.45454227  0.75729912  0.74430147  1
  C  C6  4  0.17838871  0.58265894  0.23174465  1
  C  C7  4  0.20104880  0.76866279  0.69745183  1
  C  C8  4  0.24658880  0.58877701  0.05348730  1
  C  C9  4  0.36780688  0.94810475  0.74416086  1
  C  C10  4  0.36865554  0.93219097  0.55952457  1
  C  C11  4  0.39092595  0.69950784  0.20907892  1
  N  N12  4  0.09415086  0.44168924  0.11037573  1
  N  N13  4  0.14739032  0.79541706  0.02971444  1
  N  N14  4  0.18475949  0.50864357  0.13365770  1
  N  N15  4  0.21749956  0.72550468  0.08378673  1
  N  N16  4  0.23036517  1.04830432  0.87473130  1
  N  N17  4  0.25829563  0.54119910  0.29206147  1
  N  N18  4  0.29515493  0.72238831  0.73555761  1
  N  N19  4  0.29871548  0.59399329  0.77488847  1
  N  N20  4  0.36895742  1.15309570  0.64007375  1
  N  N21  4  0.38874717  1.01846094  0.64428496  1
  N  N22  4  0.42024638  0.68455343  0.09645625  1
  N  N23  4  0.43425616  0.70183318  0.53609580  1
  O  O24  4  0.03053357  0.40887031  0.18407858  1
  O  O25  4  0.09141318  0.41882809  0.02001226  1
  O  O26  4  0.10346746  0.89051318  0.07283254  1
  O  O27  4  0.14001367  0.41205169  0.38664753  1
  O  O28  4  0.14269468  0.74344280  0.44246276  1
  O  O29  4  0.21968171  0.97304996  0.27731299  1
  O  O30  4  0.29815558  0.42802166  0.42720943  1
  O  O31  4  0.35875611  0.30238493  0.05584749  1
  O  O32  4  0.36664068  0.28586223  0.22055623  1
  O  O33  4  0.38004397  0.56135049  0.80614828  1
  O  O34  4  0.42747402  0.78334686  -0.05502970  1
  O  O35  4  0.45341213  0.89927759  0.07976813  1
