###############################################################################################
#
# CIF file generated by modified CIFWriter class 
# in pymatgen (v2025.03.10) https://pymatgen.org/
#
###############################################################################################
data_MACE-OFF23(L)_96dbbd7e638e054
_symmetry_space_group_name_H-M   P2_1/m
_cell_length_a   7.97694114
_cell_length_b   31.83031778
_cell_length_c   8.24361896
_cell_angle_alpha   90.00000000
_cell_angle_beta   94.66289025
_cell_angle_gamma   90.00000000
_symmetry_Int_Tables_number   11
_chemical_formula_moiety   'C6 H6 N12 O12'
_chemical_formula_sum   'H24 C24 N48 O48'
_cell_volume   2086.19778940
_cell_formula_units_Z   4
loop_
 _symmetry_equiv_pos_site_id
 _symmetry_equiv_pos_as_xyz
  1  'x, y, z'
  2  '-x, -y, -z'
  3  '-x, y+1/2, -z'
  4  'x, -y+1/2, z'
loop_
 _atom_site_type_symbol
 _atom_site_label
 _atom_site_symmetry_multiplicity
 _atom_site_fract_x
 _atom_site_fract_y
 _atom_site_fract_z
 _atom_site_occupancy
  H  H0  4  0.16369421  0.96048850  0.25851551  1
  H  H1  4  0.29874122  0.66457560  0.26758265  1
  H  H2  4  0.37058472  0.11587112  1.02165352  1
  H  H3  4  0.41386411  0.97744807  0.42278434  1
  H  H4  4  0.44814941  0.45501892  1.03315690  1
  H  H5  4  0.45141636  0.14829170  0.56517477  1
  C  C6  4  0.26844391  0.55958269  0.23476048  1
  C  C7  4  0.34947385  0.86583864  0.24047120  1
  C  C8  4  0.43337207  0.95120897  0.34390186  1
  C  C9  4  0.44611003  0.39196884  0.92278180  1
  C  C10  4  0.48819292  0.37653291  0.64999186  1
  C  C11  4  0.49771531  0.06031588  0.93032237  1
  N  N12  4  0.10607774  0.61161971  0.37227699  1
  N  N13  4  0.21374116  0.93763972  -0.06214156  1
  N  N14  4  0.21882125  0.89681938  0.25478119  1
  N  N15  4  0.23638851  0.15011464  0.76682461  1
  N  N16  4  0.28934925  0.02529258  0.73882647  1
  N  N17  4  0.32261698  0.55315867  0.07256048  1
  N  N18  4  0.35826551  0.11748459  0.76418583  1
  N  N19  4  0.40261675  0.86626857  0.07524741  1
  N  N20  4  0.40892698  0.82681830  -0.00451692  1
  N  N21  4  0.42630314  0.08038550  0.40836474  1
  N  N22  4  0.45111902  0.03853816  0.77859013  1
  N  N23  4  0.48180638  0.58569182  0.44021774  1
  O  O24  4  0.00200328  0.58489743  0.39223329  1
  O  O25  4  0.06655320  0.56206475  -0.04148485  1
  O  O26  4  0.11965916  0.64533308  0.43927535  1
  O  O27  4  0.15169181  0.14965450  0.88123975  1
  O  O28  4  0.19729965  0.02491256  0.84851221  1
  O  O29  4  0.22577850  0.17371035  0.65257621  1
  O  O30  4  0.25648172  0.01441475  0.59959196  1
  O  O31  4  0.27978844  0.56852182  -0.18754049  1
  O  O32  4  0.31823540  0.70021580  0.04109256  1
  O  O33  4  0.35486381  0.11094826  0.35115161  1
  O  O34  4  0.43256956  0.04618712  0.34592492  1
  O  O35  4  0.49951999  0.82500899  -0.11412109  1
