###############################################################################################
#
# CIF file generated by modified CIFWriter class 
# in pymatgen (v2025.03.10) https://pymatgen.org/
#
###############################################################################################
data_MACE-OFF23(L)_974fe7f12b95efc
_symmetry_space_group_name_H-M   P222_1
_cell_length_a   11.15777313
_cell_length_b   7.28029888
_cell_length_c   26.28040917
_cell_angle_alpha   90.00000000
_cell_angle_beta   90.00000000
_cell_angle_gamma   90.00000000
_symmetry_Int_Tables_number   17
_chemical_formula_moiety   'C6 H6 N12 O12'
_chemical_formula_sum   'H24 C24 N48 O48'
_cell_volume   2134.80818122
_cell_formula_units_Z   4
loop_
 _symmetry_equiv_pos_site_id
 _symmetry_equiv_pos_as_xyz
  1  'x, y, z'
  2  '-x, -y, z+1/2'
  3  '-x, y, -z+1/2'
  4  'x, -y, -z'
loop_
 _atom_site_type_symbol
 _atom_site_label
 _atom_site_symmetry_multiplicity
 _atom_site_fract_x
 _atom_site_fract_y
 _atom_site_fract_z
 _atom_site_occupancy
  H  H0  4  0.03216638  0.10132320  0.44999195  1
  H  H1  4  0.03350767  0.46120969  0.69930799  1
  H  H2  4  0.03534158  0.96179028  0.63571950  1
  H  H3  4  0.03746249  0.33972768  0.54556326  1
  H  H4  4  0.23587805  0.44225542  0.30548570  1
  H  H5  4  0.24089117  0.43710710  0.54136666  1
  C  C6  4  0.05360060  0.52229936  0.66281093  1
  C  C7  4  0.05600832  0.45068971  0.57162851  1
  C  C8  4  0.06116444  0.22103162  0.42914275  1
  C  C9  4  0.06190397  0.17812405  0.37030148  1
  C  C10  4  0.18759831  0.41442287  0.34031913  1
  C  C11  4  0.18969850  0.48460465  0.43128759  1
  N  N12  4  -0.13239902  0.37260682  0.44150204  1
  N  N13  4  -0.07529233  0.23980834  0.30031023  1
  N  N14  4  -0.06883455  0.27292966  0.62962241  1
  N  N15  4  -0.01655495  0.69246540  0.65604371  1
  N  N16  4  -0.00775421  0.61843579  0.55666801  1
  N  N17  4  0.03138192  0.38949107  0.62311439  1
  N  N18  4  0.17498062  0.29162097  0.44781896  1
  N  N19  4  0.17922790  0.21634048  0.34928790  1
  N  N20  4  0.22910776  0.09294469  0.31398935  1
  N  N21  4  0.24455481  0.49419601  0.61773724  1
  N  N22  4  0.27247121  0.17286542  0.44675967  1
  N  N23  4  0.36470929  0.43751074  0.62158500  1
  O  O24  4  -0.18453325  0.48265716  0.55557989  1
  O  O25  4  -0.17401483  0.22009048  0.43904968  1
  O  O26  4  -0.12755160  0.29445672  0.66737233  1
  O  O27  4  -0.11739647  0.35452044  0.27199259  1
  O  O28  4  -0.08259563  0.15760704  0.59698848  1
  O  O29  4  -0.08247756  0.07630895  0.29537098  1
  O  O30  4  0.18764045  -0.06044632  0.31426926  1
  O  O31  4  0.24760850  0.01071192  0.44458773  1
  O  O32  4  0.31111280  0.15059281  0.28912055  1
  O  O33  4  0.36981693  0.24224011  0.44979314  1
  O  O34  4  0.40759691  0.36970465  0.58414371  1
  O  O35  4  0.41083258  0.45900346  0.66260023  1
