###############################################################################################
#
# CIF file generated by modified CIFWriter class 
# in pymatgen (v2025.03.10) https://pymatgen.org/
#
###############################################################################################
data_MACE-OFF23(L)_98dd69d49471629
_symmetry_space_group_name_H-M   Pnc2
_cell_length_a   7.42933049
_cell_length_b   14.51665024
_cell_length_c   17.68264836
_cell_angle_alpha   90.00000000
_cell_angle_beta   90.00000000
_cell_angle_gamma   90.00000000
_symmetry_Int_Tables_number   30
_chemical_formula_moiety   'C6 H6 N12 O12'
_chemical_formula_sum   'H24 C24 N48 O48'
_cell_volume   1907.05580479
_cell_formula_units_Z   4
loop_
 _symmetry_equiv_pos_site_id
 _symmetry_equiv_pos_as_xyz
  1  'x, y, z'
  2  '-x, -y, z'
  3  '-x, y+1/2, z+1/2'
  4  'x, -y+1/2, z+1/2'
loop_
 _atom_site_type_symbol
 _atom_site_label
 _atom_site_symmetry_multiplicity
 _atom_site_fract_x
 _atom_site_fract_y
 _atom_site_fract_z
 _atom_site_occupancy
  H  H0  4  -0.27721424  0.16881403  0.39289855  1
  H  H1  4  -0.06599572  0.07135522  0.93135139  1
  H  H2  4  -0.05924931  0.14204389  0.59876342  1
  H  H3  4  0.02220407  0.10966046  0.37639955  1
  H  H4  4  0.06101056  0.20519740  1.12273291  1
  H  H5  4  0.23277701  0.12971430  0.91746825  1
  C  C6  4  -0.17861642  0.20464539  0.42678459  1
  C  C7  4  -0.05430205  0.14159493  0.95036169  1
  C  C8  4  -0.04510630  0.18302087  0.54801533  1
  C  C9  4  0.01680751  0.16610031  0.41609560  1
  C  C10  4  0.03354282  0.21757269  1.06344621  1
  C  C11  4  0.14120326  0.18019050  0.94057062  1
  N  N12  4  -0.37093027  0.15420221  0.53448536  1
  N  N13  4  -0.32799246  0.15836678  0.87357403  1
  N  N14  4  -0.21319927  0.19137818  0.50711523  1
  N  N15  4  -0.17493276  0.19862322  0.90600303  1
  N  N16  4  -0.14629810  0.07533942  1.07363861  1
  N  N17  4  -0.08737824  0.14911978  1.03131443  1
  N  N18  4  0.06401037  0.13691843  0.49128683  1
  N  N19  4  0.13269337  0.24106130  0.81362532  1
  N  N20  4  0.14220032  0.23842208  0.39142133  1
  N  N21  4  0.15936882  0.05838887  0.50554431  1
  N  N22  4  0.19253763  0.20545747  1.01679247  1
  N  N23  4  0.35361017  0.17816786  1.04883061  1
  O  O24  4  -0.49193903  0.14541731  0.48897097  1
  O  O25  4  -0.44010333  0.21076447  0.84937050  1
  O  O26  4  -0.37554161  0.13817149  0.60117132  1
  O  O27  4  -0.32918494  0.07548923  0.87034705  1
  O  O28  4  -0.20453013  0.00970309  1.03847974  1
  O  O29  4  -0.13975511  0.08387702  1.14113693  1
  O  O30  4  0.09561921  0.19507015  0.27255944  1
  O  O31  4  0.16393796  0.16281028  0.79515532  1
  O  O32  4  0.18394140  0.03927481  0.57114651  1
  O  O33  4  0.21016582  0.01463246  0.45107413  1
  O  O34  4  0.36960186  0.19177159  1.11570509  1
  O  O35  4  0.46590944  0.35376247  0.50680177  1
