###############################################################################################
#
# CIF file generated by modified CIFWriter class 
# in pymatgen (v2025.03.10) https://pymatgen.org/
#
###############################################################################################
data_MACE-OFF23(L)_99546eb00257ad1
_symmetry_space_group_name_H-M   P2_1/c
_cell_length_a   12.28387149
_cell_length_b   8.01387385
_cell_length_c   14.94970213
_cell_angle_alpha   90.00000000
_cell_angle_beta   92.39398159
_cell_angle_gamma   90.00000000
_symmetry_Int_Tables_number   14
_chemical_formula_moiety   'C6 H6 N12 O12'
_chemical_formula_sum   'H24 C24 N48 O48'
_cell_volume   1470.38511669
_cell_formula_units_Z   4
loop_
 _symmetry_equiv_pos_site_id
 _symmetry_equiv_pos_as_xyz
  1  'x, y, z'
  2  '-x, -y, -z'
  3  '-x, y+1/2, -z+1/2'
  4  'x, -y+1/2, z+1/2'
loop_
 _atom_site_type_symbol
 _atom_site_label
 _atom_site_symmetry_multiplicity
 _atom_site_fract_x
 _atom_site_fract_y
 _atom_site_fract_z
 _atom_site_occupancy
  H  H0  4  0.06421862  0.26775226  1.00130427  1
  H  H1  4  0.09659720  0.50086023  0.76174254  1
  H  H2  4  0.10867531  0.55332987  1.03403808  1
  H  H3  4  0.28307897  0.45269272  0.73130911  1
  H  H4  4  0.38489247  0.17671080  0.94436344  1
  H  H5  4  0.42854495  0.45736788  0.97572788  1
  C  C6  4  0.12724158  0.31594146  0.95997561  1
  C  C7  4  0.14311976  0.03549549  0.32154481  1
  C  C8  4  0.15663686  0.50202336  0.98163312  1
  C  C9  4  0.26707209  0.43056841  0.80087730  1
  C  C10  4  0.31862965  0.23925249  0.42624541  1
  C  C11  4  0.34665392  0.44720363  0.94788211  1
  N  N12  4  0.06313666  0.31553948  0.31927947  1
  N  N13  4  0.09103796  0.17312122  0.36620515  1
  N  N14  4  0.13031003  0.58262375  0.89467007  1
  N  N15  4  0.15987507  -0.24640351  0.38058600  1
  N  N16  4  0.22168724  0.29229465  0.47058147  1
  N  N17  4  0.23430579  0.11220518  1.04784897  1
  N  N18  4  0.27016271  0.50862197  1.01071614  1
  N  N19  4  0.29653338  0.23605832  0.33056658  1
  N  N20  4  0.30400908  -0.12675084  0.57540203  1
  N  N21  4  0.32557481  0.36344723  0.27496198  1
  N  N22  4  0.33519086  -0.03258656  0.36119910  1
  N  N23  4  0.42415999  -0.12120841  0.33028870  1
  O  O24  4  0.02925528  0.43038261  0.36233381  1
  O  O25  4  0.07190860  0.19078992  0.73871995  1
  O  O26  4  0.15496182  0.09815348  1.09228471  1
  O  O27  4  0.16494725  -0.28984446  0.30352965  1
  O  O28  4  0.17527804  0.83102535  0.94704172  1
  O  O29  4  0.23487052  0.68004385  1.12225935  1
  O  O30  4  0.31021721  0.16144929  0.69544249  1
  O  O31  4  0.32220281  0.04761740  1.06223728  1
  O  O32  4  0.36164665  0.48790688  0.31053980  1
  O  O33  4  0.40014579  -0.15926435  0.57928601  1
  O  O34  4  0.43003977  0.63624723  0.75066048  1
  O  O35  4  0.48403186  0.68023757  0.88838097  1
