###############################################################################################
#
# CIF file generated by modified CIFWriter class 
# in pymatgen (v2025.03.10) https://pymatgen.org/
#
###############################################################################################
data_MACE-OFF23(L)_9b49bd2df57c59a
_symmetry_space_group_name_H-M   P2_1/c
_cell_length_a   11.34046460
_cell_length_b   26.07020713
_cell_length_c   7.87101187
_cell_angle_alpha   90.00000000
_cell_angle_beta   69.72545397
_cell_angle_gamma   90.00000000
_symmetry_Int_Tables_number   14
_chemical_formula_moiety   'C6 H6 N12 O12'
_chemical_formula_sum   'H24 C24 N48 O48'
_cell_volume   2182.87380562
_cell_formula_units_Z   4
loop_
 _symmetry_equiv_pos_site_id
 _symmetry_equiv_pos_as_xyz
  1  'x, y, z'
  2  '-x, -y, -z'
  3  '-x, y+1/2, -z+1/2'
  4  'x, -y+1/2, z+1/2'
loop_
 _atom_site_type_symbol
 _atom_site_label
 _atom_site_symmetry_multiplicity
 _atom_site_fract_x
 _atom_site_fract_y
 _atom_site_fract_z
 _atom_site_occupancy
  H  H0  4  0.30330166  0.83752959  0.90575989  1
  H  H1  4  0.32802695  0.52795128  0.11868292  1
  H  H2  4  0.41617261  0.37847828  1.23708120  1
  H  H3  4  0.42993749  0.30321948  1.06811822  1
  H  H4  4  0.47359380  0.48986969  0.85378141  1
  H  H5  4  0.49944379  0.85605843  0.93633940  1
  C  C6  4  0.36512079  0.85811957  0.78973648  1
  C  C7  4  0.38103621  0.93754375  0.61856108  1
  C  C8  4  0.46127510  0.38567263  1.09392133  1
  C  C9  4  0.47174116  0.33494364  0.97968489  1
  C  C10  4  0.48811043  0.05076698  0.36453072  1
  C  C11  4  0.49581137  0.63001565  0.30879325  1
  N  N12  4  0.17728413  0.91189753  0.84173255  1
  N  N13  4  0.27382738  0.42320021  1.06095716  1
  N  N14  4  0.30879377  0.90595453  0.76880809  1
  N  N15  4  0.32987719  0.60872254  -0.11993018  1
  N  N16  4  0.34926229  0.72406332  0.14149243  1
  N  N17  4  0.35429102  0.20011728  0.29563953  1
  N  N18  4  0.39683761  0.82599315  0.62652557  1
  N  N19  4  0.40123172  0.42792848  1.03469129  1
  N  N20  4  0.41269522  0.44790625  0.60956255  1
  N  N21  4  0.41300613  0.34275890  0.84359865  1
  N  N22  4  0.41951397  0.91190356  0.44237443  1
  N  N23  4  0.48233380  0.42462439  0.70377388  1
  O  O24  4  0.11918429  0.87561240  0.92352760  1
  O  O25  4  0.13756313  0.95320315  0.82004523  1
  O  O26  4  0.21814073  0.39050831  1.16645420  1
  O  O27  4  0.22396411  0.90660560  0.45065096  1
  O  O28  4  0.23257766  0.45354073  0.97982445  1
  O  O29  4  0.25408849  0.73227652  0.26644215  1
  O  O30  4  0.32382268  0.19390269  0.16516836  1
  O  O31  4  0.33682189  0.26274429  0.89239019  1
  O  O32  4  0.36860814  0.86091218  0.25630912  1
  O  O33  4  0.38681719  0.42157580  0.50136083  1
  O  O34  4  0.38692440  0.49262861  0.64099260  1
  O  O35  4  0.40648483  0.74657495  0.52225755  1
