###############################################################################################
#
# CIF file generated by modified CIFWriter class 
# in pymatgen (v2025.03.10) https://pymatgen.org/
#
###############################################################################################
data_MACE-OFF23(L)_9ce61a3c21a9679
_symmetry_space_group_name_H-M   P2_1/c
_cell_length_a   8.89063467
_cell_length_b   13.04491043
_cell_length_c   13.94529929
_cell_angle_alpha   90.00000000
_cell_angle_beta   68.26275989
_cell_angle_gamma   90.00000000
_symmetry_Int_Tables_number   14
_chemical_formula_moiety   'C6 H6 N12 O12'
_chemical_formula_sum   'H24 C24 N48 O48'
_cell_volume   1502.33558295
_cell_formula_units_Z   4
loop_
 _symmetry_equiv_pos_site_id
 _symmetry_equiv_pos_as_xyz
  1  'x, y, z'
  2  '-x, -y, -z'
  3  '-x, y+1/2, -z+1/2'
  4  'x, -y+1/2, z+1/2'
loop_
 _atom_site_type_symbol
 _atom_site_label
 _atom_site_symmetry_multiplicity
 _atom_site_fract_x
 _atom_site_fract_y
 _atom_site_fract_z
 _atom_site_occupancy
  H  H0  4  -0.13526107  0.98252835  0.90788342  1
  H  H1  4  0.07483948  0.42078847  0.43249975  1
  H  H2  4  0.11774898  0.51255802  0.09325208  1
  H  H3  4  0.24120484  0.71355700  0.36702939  1
  H  H4  4  0.32890404  1.08290751  0.61757869  1
  H  H5  4  0.38085401  0.78924296  0.68790576  1
  C  C6  4  -0.01697072  0.53535417  0.35134056  1
  C  C7  4  0.12069791  1.02758763  0.86750216  1
  C  C8  4  0.13276288  0.53308382  0.16428241  1
  C  C9  4  0.20681377  0.64738954  0.33320289  1
  C  C10  4  0.27224108  0.46982408  0.18070183  1
  C  C11  4  0.30181017  0.85492662  0.71195449  1
  N  N12  4  -0.15803868  1.00749570  0.73488803  1
  N  N13  4  -0.05460485  0.77871273  0.84748846  1
  N  N14  4  -0.01661349  0.51729554  0.24981710  1
  N  N15  4  0.03160151  0.64032593  0.36402526  1
  N  N16  4  0.18633417  0.86061799  0.66076898  1
  N  N17  4  0.20293187  0.41275837  0.27530590  1
  N  N18  4  0.20815708  0.80152054  0.57268398  1
  N  N19  4  0.22014722  0.55397275  0.38611982  1
  N  N20  4  0.28772533  0.32566737  0.28897442  1
  N  N21  4  0.36436883  0.53059330  0.39844596  1
  N  N22  4  0.39084156  0.95167674  0.68362973  1
  N  N23  4  0.46375151  0.05121544  0.40362731  1
  O  O24  4  -0.26857931  1.03834017  0.80935263  1
  O  O25  4  -0.19077624  0.70353877  0.35275574  1
  O  O26  4  -0.15638391  0.99648353  0.64837905  1
  O  O27  4  0.01316529  0.80385600  0.33296754  1
  O  O28  4  0.12865096  0.67340353  0.02276293  1
  O  O29  4  0.21364361  0.27164364  0.36096302  1
  O  O30  4  0.29757502  0.77109163  0.05875987  1
  O  O31  4  0.37053935  1.05462528  0.93178036  1
  O  O32  4  0.40353718  0.13379834  0.43211091  1
  O  O33  4  0.40891082  -0.03102139  0.44067184  1
  O  O34  4  0.42266624  0.31266169  0.22646008  1
  O  O35  4  0.46236042  0.59845523  0.37950824  1
