###############################################################################################
#
# CIF file generated by modified CIFWriter class 
# in pymatgen (v2025.03.10) https://pymatgen.org/
#
###############################################################################################
data_MACE-OFF23(L)_9e4fde6d12faca3
_symmetry_space_group_name_H-M   P-1
_cell_length_a   13.77007259
_cell_length_b   16.93760903
_cell_length_c   8.15139425
_cell_angle_alpha   87.16393695
_cell_angle_beta   106.12731302
_cell_angle_gamma   82.86454888
_symmetry_Int_Tables_number   2
_chemical_formula_moiety   'C6 H6 N12 O12'
_chemical_formula_sum   'H24 C24 N48 O48'
_cell_volume   1805.15807383
_cell_formula_units_Z   4
loop_
 _symmetry_equiv_pos_site_id
 _symmetry_equiv_pos_as_xyz
  1  'x, y, z'
  2  '-x, -y, -z'
  3  'x+1/2, y+1/2, z'
  4  '-x+1/2, -y+1/2, -z'
loop_
 _atom_site_type_symbol
 _atom_site_label
 _atom_site_symmetry_multiplicity
 _atom_site_fract_x
 _atom_site_fract_y
 _atom_site_fract_z
 _atom_site_occupancy
  H  H0  4  0.06721226  0.41410584  1.06774673  1
  H  H1  4  0.08937421  0.03086839  -0.17970142  1
  H  H2  4  0.09551037  0.55578271  0.67211633  1
  H  H3  4  0.11084218  0.53694736  1.17826746  1
  H  H4  4  0.13420386  0.15340884  -0.06581467  1
  H  H5  4  0.23283190  -0.01920051  0.32175431  1
  C  C6  4  0.12648706  0.43562976  1.02197706  1
  C  C7  4  0.13976690  0.52431403  0.79375527  1
  C  C8  4  0.15505414  0.51579512  1.09465291  1
  C  C9  4  0.16703169  0.02386323  -0.09680499  1
  C  C10  4  0.19584117  0.10418252  -0.02075117  1
  C  C11  4  0.24534633  0.00086782  0.20264636  1
  N  N12  4  0.06126762  0.40245478  0.72357825  1
  N  N13  4  0.09121001  0.45852832  0.83891313  1
  N  N14  4  0.09765271  -0.06670908  0.07339291  1
  N  N15  4  0.12942914  0.56953228  0.93711963  1
  N  N16  4  0.15593696  0.12880982  0.24971073  1
  N  N17  4  0.15812511  0.64546176  0.94327400  1
  N  N18  4  0.17928418  -0.03054051  0.05522944  1
  N  N19  4  0.20515117  -0.04498913  -0.33569406  1
  N  N20  4  0.21433877  0.37313929  1.06202420  1
  N  N21  4  0.21899570  0.08671654  0.16358361  1
  N  N22  4  0.23500502  0.32943027  1.22296712  1
  N  N23  4  0.23791115  -0.00192906  -0.19153922  1
  O  O24  4  0.02872403  0.34683639  0.77706149  1
  O  O25  4  0.03387383  -0.07582166  -0.05880720  1
  O  O26  4  0.06704777  0.41758952  0.58032532  1
  O  O27  4  0.09830410  -0.08856126  0.21644250  1
  O  O28  4  0.11350511  0.19374026  0.18357980  1
  O  O29  4  0.11610267  -0.05145908  -0.38120819  1
  O  O30  4  0.15376894  0.09655956  0.38328727  1
  O  O31  4  0.16011174  0.67678827  0.80807512  1
  O  O32  4  0.17457428  0.34440893  1.30313975  1
  O  O33  4  0.17510396  0.67240897  1.08100013  1
  O  O34  4  0.18915701  0.21965045  -0.26236241  1
  O  O35  4  0.23013703  0.56816346  1.40331622  1
