###############################################################################################
#
# CIF file generated by modified CIFWriter class 
# in pymatgen (v2025.03.10) https://pymatgen.org/
#
###############################################################################################
data_MACE-OFF23(L)_a01f859f16f1860
_symmetry_space_group_name_H-M   P2/c
_cell_length_a   14.62677271
_cell_length_b   8.28073068
_cell_length_c   13.87292733
_cell_angle_alpha   90.00000000
_cell_angle_beta   75.51229376
_cell_angle_gamma   90.00000000
_symmetry_Int_Tables_number   13
_chemical_formula_moiety   'C6 H6 N12 O12'
_chemical_formula_sum   'H24 C24 N48 O48'
_cell_volume   1626.86293221
_cell_formula_units_Z   4
loop_
 _symmetry_equiv_pos_site_id
 _symmetry_equiv_pos_as_xyz
  1  'x, y, z'
  2  '-x, -y, -z'
  3  '-x, y, -z+1/2'
  4  'x, -y, z+1/2'
loop_
 _atom_site_type_symbol
 _atom_site_label
 _atom_site_symmetry_multiplicity
 _atom_site_fract_x
 _atom_site_fract_y
 _atom_site_fract_z
 _atom_site_occupancy
  H  H0  4  0.07356882  0.28733815  0.20560849  1
  H  H1  4  0.17737435  0.19694064  0.29650594  1
  H  H2  4  0.23315078  0.72911925  0.42493876  1
  H  H3  4  0.24499403  0.46223668  0.48416976  1
  H  H4  4  0.42107713  0.88491979  0.58426963  1
  H  H5  4  0.43077321  0.61453178  0.64434040  1
  C  C6  4  0.14502363  0.29620630  0.16075888  1
  C  C7  4  0.21557023  0.76413679  0.72310400  1
  C  C8  4  0.24380052  0.72858670  0.49914222  1
  C  C9  4  0.25017652  0.55288144  0.53844122  1
  C  C10  4  0.35557242  0.18093369  0.09343650  1
  C  C11  4  0.36153958  0.35695414  0.13433071  1
  N  N12  4  0.08078669  0.83155769  0.53259529  1
  N  N13  4  0.09287088  0.55462857  0.10710351  1
  N  N14  4  0.16095317  0.79916034  0.56962468  1
  N  N15  4  0.16888351  0.53922298  0.62538561  1
  N  N16  4  0.25005266  -0.04330770  0.16840770  1
  N  N17  4  0.26694995  0.51289403  0.78511509  1
  N  N18  4  0.28012869  0.88738605  0.67238707  1
  N  N19  4  0.28927312  0.35102212  0.22821908  1
  N  N20  4  0.33052322  0.80960969  0.49897140  1
  N  N21  4  0.33592485  0.47404968  0.06856580  1
  N  N22  4  0.36739746  0.92268456  0.42434640  1
  N  N23  4  0.39887693  0.40959010  0.52173884  1
  O  O24  4  0.00594955  0.83889130  0.59391249  1
  O  O25  4  0.01400689  0.48834983  0.64711599  1
  O  O26  4  0.09581381  0.85507904  0.44450052  1
  O  O27  4  0.11586622  0.67140375  0.05504022  1
  O  O28  4  0.17577178  -0.07863399  0.22508326  1
  O  O29  4  0.18938135  0.48795333  0.34315152  1
  O  O30  4  0.30230859  -0.13132272  0.10929943  1
  O  O31  4  0.32307662  0.05532773  -0.13725316  1
  O  O32  4  0.32719138  0.59007592  0.27518771  1
  O  O33  4  0.38713089  0.64574978  -0.05498168  1
  O  O34  4  0.44169478  0.01698068  -0.07331165  1
  O  O35  4  0.46074530  0.37213425  0.56140870  1
