###############################################################################################
#
# CIF file generated by modified CIFWriter class 
# in pymatgen (v2025.03.10) https://pymatgen.org/
#
###############################################################################################
data_MACE-OFF23(L)_a10200147ae87cc
_symmetry_space_group_name_H-M   P4_3
_cell_length_a   8.09424861
_cell_length_b   8.09424861
_cell_length_c   26.88763730
_cell_angle_alpha   90.00000000
_cell_angle_beta   90.00000000
_cell_angle_gamma   90.00000000
_symmetry_Int_Tables_number   78
_chemical_formula_moiety   'C6 H6 N12 O12'
_chemical_formula_sum   'H24 C24 N48 O48'
_cell_volume   1761.59358335
_cell_formula_units_Z   4
loop_
 _symmetry_equiv_pos_site_id
 _symmetry_equiv_pos_as_xyz
  1  'x, y, z'
  2  '-y, x, z+3/4'
  3  '-x, -y, z+1/2'
  4  'y, -x, z+1/4'
loop_
 _atom_site_type_symbol
 _atom_site_label
 _atom_site_symmetry_multiplicity
 _atom_site_fract_x
 _atom_site_fract_y
 _atom_site_fract_z
 _atom_site_occupancy
  H  H0  4  -0.12227961  0.26904628  0.57030419  1
  H  H1  4  -0.06332311  0.90483703  0.91312134  1
  H  H2  4  -0.02072219  0.68655250  0.73748056  1
  H  H3  4  0.03313637  -0.10457498  0.47554962  1
  H  H4  4  0.15933935  0.35225439  0.58193579  1
  H  H5  4  0.17571722  -0.27673353  0.60819768  1
  C  C6  4  -0.03733155  0.16623922  0.56865413  1
  C  C7  4  -0.02084786  0.90418952  0.87517567  1
  C  C8  4  -0.00155480  0.76216664  0.77015140  1
  C  C9  4  0.05365733  -0.05462602  0.51223348  1
  C  C10  4  0.14733142  0.22073232  0.57631183  1
  C  C11  4  0.15171183  -0.16276167  0.58853947  1
  N  N12  4  -0.21745520  0.57495836  0.80208247  1
  N  N13  4  -0.10546803  0.70517598  0.81089921  1
  N  N14  4  -0.04947326  0.08940475  0.51989328  1
  N  N15  4  -0.04067125  -0.33271918  0.53752548  1
  N  N16  4  -0.03605768  1.20271024  0.86686576  1
  N  N17  4  0.02650755  -0.18030607  0.55004240  1
  N  N18  4  0.05225140  1.06044040  0.86047763  1
  N  N19  4  0.10190256  1.19904088  0.74321188  1
  N  N20  4  0.12716286  0.80757930  0.86992059  1
  N  N21  4  0.14432108  0.65790810  0.89318971  1
  N  N22  4  0.17131697  0.75046133  0.78438773  1
  N  N23  4  0.27882529  0.28752655  0.49714815  1
  O  O24  4  -0.32682700  0.56028825  0.83193798  1
  O  O25  4  -0.18754477  0.48754498  0.76686563  1
  O  O26  4  -0.15059430  1.19453370  0.89601392  1
  O  O27  4  -0.10583032  -0.34129954  0.49754617  1
  O  O28  4  -0.03371005  -0.43738911  0.56967883  1
  O  O29  4  0.00396145  1.21687349  0.70979087  1
  O  O30  4  0.00936794  1.32281645  0.84394796  1
  O  O31  4  0.03877678  0.62550503  0.92380344  1
  O  O32  4  0.21325600  1.28987867  0.75439152  1
  O  O33  4  0.23403986  0.67768891  0.70724665  1
  O  O34  4  0.26264402  0.43090595  0.50846448  1
  O  O35  4  0.26269138  0.57691520  0.88143428  1
