###############################################################################################
#
# CIF file generated by modified CIFWriter class 
# in pymatgen (v2025.03.10) https://pymatgen.org/
#
###############################################################################################
data_MACE-OFF23(L)_a18172ec98bcc2a
_symmetry_space_group_name_H-M   Pca2_1
_cell_length_a   15.54146782
_cell_length_b   7.46585978
_cell_length_c   13.51124756
_cell_angle_alpha   90.00000000
_cell_angle_beta   90.00000000
_cell_angle_gamma   90.00000000
_symmetry_Int_Tables_number   29
_chemical_formula_moiety   'C6 H6 N12 O12'
_chemical_formula_sum   'H24 C24 N48 O48'
_cell_volume   1567.71572264
_cell_formula_units_Z   4
loop_
 _symmetry_equiv_pos_site_id
 _symmetry_equiv_pos_as_xyz
  1  'x, y, z'
  2  '-x, -y, z+1/2'
  3  '-x+1/2, y, z+1/2'
  4  'x+1/2, -y, z'
loop_
 _atom_site_type_symbol
 _atom_site_label
 _atom_site_symmetry_multiplicity
 _atom_site_fract_x
 _atom_site_fract_y
 _atom_site_fract_z
 _atom_site_occupancy
  H  H0  4  -0.00148054  0.82668395  0.19913684  1
  H  H1  4  0.02562241  0.31055263  0.30862450  1
  H  H2  4  0.06977562  0.94015369  0.34123680  1
  H  H3  4  0.09985518  0.42296763  0.45000599  1
  H  H4  4  0.23404277  0.43351924  0.72144052  1
  H  H5  4  0.24954638  0.73494950  0.66180607  1
  C  C6  4  0.04615437  0.73443119  0.22704420  1
  C  C7  4  0.06273328  0.42898380  0.29152643  1
  C  C8  4  0.09327527  0.80961256  0.32040683  1
  C  C9  4  0.11090624  0.50344918  0.38457288  1
  C  C10  4  0.19665668  0.69332806  0.20704145  1
  C  C11  4  0.20724021  0.49497366  0.24749947  1
  N  N12  4  -0.06699719  0.51227860  0.20136159  1
  N  N13  4  0.00509827  0.56698968  0.25531160  1
  N  N14  4  0.01047287  0.71059529  0.46281211  1
  N  N15  4  0.08490047  0.68841150  0.40532868  1
  N  N16  4  0.10905667  0.76795759  0.05919946  1
  N  N17  4  0.11517897  0.70801081  0.15562834  1
  N  N18  4  0.13168212  0.38947872  0.22101162  1
  N  N19  4  0.14073774  0.21795439  0.18349195  1
  N  N20  4  0.18178199  0.81465237  0.28918962  1
  N  N21  4  0.20027497  0.49797681  0.35460622  1
  N  N22  4  0.23491678  0.43809560  0.91565412  1
  N  N23  4  0.23815228  0.94844889  0.31498899  1
  O  O24  4  -0.10479398  0.62701382  0.15551581  1
  O  O25  4  -0.08782459  0.35722601  0.20888215  1
  O  O26  4  -0.02588058  0.85263090  0.45645906  1
  O  O27  4  -0.00904282  0.58661210  0.51619966  1
  O  O28  4  0.03732299  0.79715772  0.02955492  1
  O  O29  4  0.07637099  0.12567925  0.18446865  1
  O  O30  4  0.16478253  0.42092663  0.87784438  1
  O  O31  4  0.17580859  0.77963083  0.01327218  1
  O  O32  4  0.19006632  0.93478556  0.78331675  1
  O  O33  4  0.20970211  1.06688326  0.36787741  1
  O  O34  4  0.21000469  0.17638032  0.15092397  1
  O  O35  4  0.24650337  0.41402212  0.50124554  1
