###############################################################################################
#
# CIF file generated by modified CIFWriter class 
# in pymatgen (v2025.03.10) https://pymatgen.org/
#
###############################################################################################
data_MACE-OFF23(L)_a186550aadbf831
_symmetry_space_group_name_H-M   Cc
_cell_length_a   13.36151256
_cell_length_b   13.96890030
_cell_length_c   10.23082979
_cell_angle_alpha   90.00000000
_cell_angle_beta   109.54876794
_cell_angle_gamma   90.00000000
_symmetry_Int_Tables_number   9
_chemical_formula_moiety   'C6 H6 N12 O12'
_chemical_formula_sum   'H24 C24 N48 O48'
_cell_volume   1799.46819288
_cell_formula_units_Z   4
loop_
 _symmetry_equiv_pos_site_id
 _symmetry_equiv_pos_as_xyz
  1  'x, y, z'
  2  'x, -y, z+1/2'
  3  'x+1/2, y+1/2, z'
  4  'x+1/2, -y+1/2, z+1/2'
loop_
 _atom_site_type_symbol
 _atom_site_label
 _atom_site_symmetry_multiplicity
 _atom_site_fract_x
 _atom_site_fract_y
 _atom_site_fract_z
 _atom_site_occupancy
  H  H0  4  0.10884216  0.30020352  1.01140337  1
  H  H1  4  0.12744192  0.19070364  0.84541511  1
  H  H2  4  0.35378867  0.53589598  0.46656603  1
  H  H3  4  0.36253775  0.86313817  0.69922939  1
  H  H4  4  0.37280138  0.35292688  0.79845115  1
  H  H5  4  0.50133216  0.22855739  1.17639982  1
  C  C6  4  0.19025708  0.70607457  0.51455928  1
  C  C7  4  0.20254573  0.77787995  0.40411923  1
  C  C8  4  0.33265743  0.19021682  1.11919029  1
  C  C9  4  0.33531535  0.60842562  0.48740612  1
  C  C10  4  0.34768337  0.68139153  0.37705821  1
  C  C11  4  0.42641082  0.74783266  0.60423555  1
  N  N12  4  0.15329026  0.44883173  0.90250228  1
  N  N13  4  0.20125345  0.21468372  1.23357152  1
  N  N14  4  0.21798011  0.24160770  0.67364375  1
  N  N15  4  0.22786688  0.94381040  0.48767565  1
  N  N16  4  0.22866562  0.61099843  0.49691948  1
  N  N17  4  0.24494751  0.27360396  0.81231968  1
  N  N18  4  0.25546481  0.74638872  0.64698203  1
  N  N19  4  0.27407548  0.14753035  0.98486918  1
  N  N20  4  0.41127312  0.35440984  1.11470617  1
  N  N21  4  0.41979623  0.39481946  1.24014467  1
  N  N22  4  0.42922362  0.25454595  0.96426643  1
  N  N23  4  0.46170242  0.82604974  0.41128880  1
  O  O24  4  0.06156992  0.42350668  0.86990976  1
  O  O25  4  0.11292394  0.24397465  1.21458614  1
  O  O26  4  0.15171755  0.17902595  0.63964369  1
  O  O27  4  0.15212160  0.03657808  0.88770760  1
  O  O28  4  0.18739292  0.48022992  0.36578521  1
  O  O29  4  0.25210743  0.84084334  0.82024888  1
  O  O30  4  0.25859992  0.28311448  0.60188777  1
  O  O31  4  0.27184149  0.00679092  1.08634735  1
  O  O32  4  0.39155469  0.52312782  0.73811659  1
  O  O33  4  0.43625995  0.16911624  0.78704487  1
  O  O34  4  0.45728176  0.34390990  1.34118242  1
  O  O35  4  0.51471895  0.88221010  0.49706976  1
