###############################################################################################
#
# CIF file generated by modified CIFWriter class 
# in pymatgen (v2025.03.10) https://pymatgen.org/
#
###############################################################################################
data_MACE-OFF23(L)_a2c82798326856
_symmetry_space_group_name_H-M   P2_1/c
_cell_length_a   16.02472045
_cell_length_b   13.19152553
_cell_length_c   8.77136309
_cell_angle_alpha   90.00000000
_cell_angle_beta   63.03024495
_cell_angle_gamma   90.00000000
_symmetry_Int_Tables_number   14
_chemical_formula_moiety   'C6 H6 N12 O12'
_chemical_formula_sum   'H24 C24 N48 O48'
_cell_volume   1652.53319250
_cell_formula_units_Z   4
loop_
 _symmetry_equiv_pos_site_id
 _symmetry_equiv_pos_as_xyz
  1  'x, y, z'
  2  '-x, -y, -z'
  3  '-x, y+1/2, -z+1/2'
  4  'x, -y+1/2, z+1/2'
loop_
 _atom_site_type_symbol
 _atom_site_label
 _atom_site_symmetry_multiplicity
 _atom_site_fract_x
 _atom_site_fract_y
 _atom_site_fract_z
 _atom_site_occupancy
  H  H0  4  0.09242258  0.17650756  0.68257199  1
  H  H1  4  0.14046648  -0.08072362  0.88941178  1
  H  H2  4  0.21853172  0.28869878  0.24952183  1
  H  H3  4  0.24197116  -0.17193914  0.64714379  1
  H  H4  4  0.27359367  0.01273712  0.25953518  1
  H  H5  4  0.39921475  0.04869729  0.33018976  1
  C  C6  4  0.14202166  0.38526005  0.14830266  1
  C  C7  4  0.17145539  0.53165440  0.27911442  1
  C  C8  4  0.22467426  0.13790014  0.69255011  1
  C  C9  4  0.24053909  -0.09304073  0.61551530  1
  C  C10  4  0.25022860  0.01755429  0.39611469  1
  C  C11  4  0.33208694  0.04090617  0.44192268  1
  N  N12  4  0.03247167  -0.02890955  0.73208661  1
  N  N13  4  0.10067952  0.02445165  0.75288938  1
  N  N14  4  0.13846375  0.13541676  0.37233358  1
  N  N15  4  0.18043117  0.09590200  0.46669669  1
  N  N16  4  0.21272563  0.57950765  -0.01997728  1
  N  N17  4  0.21285009  -0.16235959  0.38090615  1
  N  N18  4  0.21321244  0.05710273  0.81408951  1
  N  N19  4  0.27742928  0.04586203  0.87706134  1
  N  N20  4  0.31192353  0.13365544  0.53766418  1
  N  N21  4  0.33327322  -0.04685899  0.54502504  1
  N  N22  4  0.38479076  0.20128796  0.51167480  1
  N  N23  4  0.41050663  -0.11364241  0.46516913  1
  O  O24  4  -0.00780593  0.48325231  0.16540893  1
  O  O25  4  0.01880673  -0.11473780  0.78655177  1
  O  O26  4  0.07586733  0.30423803  -0.05616917  1
  O  O27  4  0.17176521  0.10996766  0.22395133  1
  O  O28  4  0.20788802  0.74526769  -0.05682134  1
  O  O29  4  0.21381925  0.64254883  -0.25428418  1
  O  O30  4  0.28015086  0.53675434  0.43397420  1
  O  O31  4  0.32192874  0.12035118  0.87341310  1
  O  O32  4  0.36617444  0.27065573  0.61102320  1
  O  O33  4  0.39612608  0.70170807  0.00238456  1
  O  O34  4  0.45829111  0.31537015  -0.11172233  1
  O  O35  4  0.48390600  0.57361277  -0.12823589  1
