###############################################################################################
#
# CIF file generated by modified CIFWriter class 
# in pymatgen (v2025.03.10) https://pymatgen.org/
#
###############################################################################################
data_MACE-OFF23(L)_a2d8c5f7f5995d7
_symmetry_space_group_name_H-M   Pna2_1
_cell_length_a   15.96756171
_cell_length_b   8.12914909
_cell_length_c   12.70931997
_cell_angle_alpha   90.00000000
_cell_angle_beta   90.00000000
_cell_angle_gamma   90.00000000
_symmetry_Int_Tables_number   33
_chemical_formula_moiety   'C6 H6 N12 O12'
_chemical_formula_sum   'H24 C24 N48 O48'
_cell_volume   1649.70391720
_cell_formula_units_Z   4
loop_
 _symmetry_equiv_pos_site_id
 _symmetry_equiv_pos_as_xyz
  1  'x, y, z'
  2  '-x, -y, z+1/2'
  3  '-x+1/2, y+1/2, z+1/2'
  4  'x+1/2, -y+1/2, z'
loop_
 _atom_site_type_symbol
 _atom_site_label
 _atom_site_symmetry_multiplicity
 _atom_site_fract_x
 _atom_site_fract_y
 _atom_site_fract_z
 _atom_site_occupancy
  H  H0  4  -0.06908268  0.90829226  0.65697156  1
  H  H1  4  0.01205563  0.43017304  0.60826463  1
  H  H2  4  0.06982901  1.00826878  0.62193542  1
  H  H3  4  0.07700752  0.81686660  0.91240077  1
  H  H4  4  0.12018250  0.54417872  0.88397419  1
  H  H5  4  0.14932523  0.52935932  0.56962860  1
  C  C6  4  -0.02091810  0.82322277  0.68206813  1
  C  C7  4  0.02724655  0.53943263  0.65260528  1
  C  C8  4  0.06759335  0.78046278  0.83148990  1
  C  C9  4  0.06979108  0.88782503  0.65791152  1
  C  C10  4  0.09732167  0.59802782  0.81189473  1
  C  C11  4  0.11759604  0.60349030  0.62807566  1
  N  N12  4  -0.11255725  0.62274412  0.59345954  1
  N  N13  4  -0.08268336  0.73876274  0.85226723  1
  N  N14  4  -0.03195677  0.66779410  0.62766439  1
  N  N15  4  -0.01797853  0.80973633  0.79693364  1
  N  N16  4  0.02109158  0.33844487  0.79688960  1
  N  N17  4  0.02836125  0.50281646  0.76602469  1
  N  N18  4  0.10983360  0.89090325  0.76014458  1
  N  N19  4  0.11318933  0.79903292  0.48259714  1
  N  N20  4  0.11534675  0.77298726  0.59105847  1
  N  N21  4  0.15118080  1.02896703  0.79762481  1
  N  N22  4  0.15966648  0.59474066  0.72914020  1
  N  N23  4  0.23086627  0.49551874  0.74190509  1
  O  O24  4  -0.16299369  0.73103881  0.58407545  1
  O  O25  4  -0.14955593  0.72982716  0.80874016  1
  O  O26  4  -0.12219336  0.47848762  0.57269661  1
  O  O27  4  -0.06569992  0.69447144  0.94087433  1
  O  O28  4  -0.01194271  0.24548965  0.73561202  1
  O  O29  4  0.04651139  0.30543959  0.88388641  1
  O  O30  4  0.09428204  0.93630625  0.45453679  1
  O  O31  4  0.13205529  0.68417419  0.42732386  1
  O  O32  4  0.16606883  1.13622503  0.73373941  1
  O  O33  4  0.17064761  1.02555449  0.88900630  1
  O  O34  4  0.23313332  -0.04311953  0.16240948  1
  O  O35  4  0.24997125  -0.03502572  0.33142878  1
