###############################################################################################
#
# CIF file generated by modified CIFWriter class 
# in pymatgen (v2025.03.10) https://pymatgen.org/
#
###############################################################################################
data_MACE-OFF23(L)_a3348bf91902796
_symmetry_space_group_name_H-M   P2_1/c
_cell_length_a   13.25916703
_cell_length_b   8.23031404
_cell_length_c   13.83985176
_cell_angle_alpha   90.00000000
_cell_angle_beta   93.66204427
_cell_angle_gamma   90.00000000
_symmetry_Int_Tables_number   14
_chemical_formula_moiety   'C6 H6 N12 O12'
_chemical_formula_sum   'H24 C24 N48 O48'
_cell_volume   1507.21919008
_cell_formula_units_Z   4
loop_
 _symmetry_equiv_pos_site_id
 _symmetry_equiv_pos_as_xyz
  1  'x, y, z'
  2  '-x, -y, -z'
  3  '-x, y+1/2, -z+1/2'
  4  'x, -y+1/2, z+1/2'
loop_
 _atom_site_type_symbol
 _atom_site_label
 _atom_site_symmetry_multiplicity
 _atom_site_fract_x
 _atom_site_fract_y
 _atom_site_fract_z
 _atom_site_occupancy
  H  H0  4  0.09693773  0.51453347  0.75081066  1
  H  H1  4  0.13731431  0.78326827  0.80742362  1
  H  H2  4  0.21066532  0.32394118  1.01420392  1
  H  H3  4  0.24574627  0.91110921  0.57012828  1
  H  H4  4  0.39764973  0.58202587  0.73782312  1
  H  H5  4  0.46212793  0.46549831  0.88778814  1
  C  C6  4  0.16354973  0.98211776  0.29998769  1
  C  C7  4  0.18926471  0.69278931  0.83795791  1
  C  C8  4  0.23039340  0.40365896  0.95620331  1
  C  C9  4  0.25543866  0.57942644  0.99383963  1
  C  C10  4  0.34007240  0.57000535  0.78930808  1
  C  C11  4  0.38298246  1.00516152  0.38904019  1
  N  N12  4  0.05025785  1.11754433  0.40600886  1
  N  N13  4  0.14897499  0.40522012  0.87974616  1
  N  N14  4  0.15284274  0.83048529  0.98924406  1
  N  N15  4  0.18708089  0.80815383  0.44228336  1
  N  N16  4  0.25321551  1.02204984  0.25195126  1
  N  N17  4  0.25395521  1.13578423  0.17990840  1
  N  N18  4  0.29209566  0.72519724  0.80897251  1
  N  N19  4  0.30748749  0.64439942  0.24723446  1
  N  N20  4  0.32371495  1.14309686  0.41579364  1
  N  N21  4  0.34818737  1.29860029  0.39287472  1
  N  N22  4  0.36191142  0.59490174  0.97234845  1
  N  N23  4  0.41358080  0.76135745  0.48840225  1
  O  O24  4  -0.01617453  1.08891933  0.34429050  1
  O  O25  4  0.03935614  0.33168025  0.98679090  1
  O  O26  4  0.10885102  0.92996479  0.93918274  1
  O  O27  4  0.16746726  0.66680747  0.57650496  1
  O  O28  4  0.17363715  0.29810342  0.65929347  1
  O  O29  4  0.23976523  0.95373121  0.73655387  1
  O  O30  4  0.29660089  1.40555832  0.42359458  1
  O  O31  4  0.33375324  1.15996975  0.14497283  1
  O  O32  4  0.37661514  0.66276081  0.53966980  1
  O  O33  4  0.38904490  0.86113010  0.71356656  1
  O  O34  4  0.41938429  1.31360196  0.34245173  1
  O  O35  4  0.49420834  0.74823113  0.95155002  1
