###############################################################################################
#
# CIF file generated by modified CIFWriter class 
# in pymatgen (v2025.03.10) https://pymatgen.org/
#
###############################################################################################
data_MACE-OFF23(L)_a42b2927ebdd205
_symmetry_space_group_name_H-M   P2_12_12_1
_cell_length_a   12.00661268
_cell_length_b   10.10413117
_cell_length_c   14.84280243
_cell_angle_alpha   90.00000000
_cell_angle_beta   90.00000000
_cell_angle_gamma   90.00000000
_symmetry_Int_Tables_number   19
_chemical_formula_moiety   'C6 H6 N12 O12'
_chemical_formula_sum   'H24 C24 N48 O48'
_cell_volume   1800.67520005
_cell_formula_units_Z   4
loop_
 _symmetry_equiv_pos_site_id
 _symmetry_equiv_pos_as_xyz
  1  'x, y, z'
  2  '-x+1/2, -y, z+1/2'
  3  '-x, y+1/2, -z+1/2'
  4  'x+1/2, -y+1/2, -z'
loop_
 _atom_site_type_symbol
 _atom_site_label
 _atom_site_symmetry_multiplicity
 _atom_site_fract_x
 _atom_site_fract_y
 _atom_site_fract_z
 _atom_site_occupancy
  H  H0  4  -0.04120164  0.48188404  0.40381236  1
  H  H1  4  0.02606389  0.47725023  0.25220116  1
  H  H2  4  0.11983512  0.54362256  0.93978669  1
  H  H3  4  0.18274962  0.78118991  0.46386129  1
  H  H4  4  0.24915486  0.28631472  0.40678171  1
  H  H5  4  0.24986211  0.22441225  0.81128210  1
  C  C6  4  0.04652022  0.50542854  0.39943609  1
  C  C7  4  0.09084849  0.50111194  0.30008640  1
  C  C8  4  0.17942428  0.68334233  0.43467236  1
  C  C9  4  0.19852374  0.50388903  0.91709320  1
  C  C10  4  0.21431706  0.38320058  0.39472074  1
  C  C11  4  0.22461325  0.67966048  0.33590523  1
  N  N12  4  -0.01152519  0.69478582  0.49287547  1
  N  N13  4  0.06001237  0.29815412  0.48820308  1
  N  N14  4  0.06527010  0.63745903  0.43376901  1
  N  N15  4  0.08765580  0.70853105  0.21588204  1
  N  N16  4  0.11312791  0.40610712  0.44662596  1
  N  N17  4  0.11415690  0.43841748  0.77211306  1
  N  N18  4  0.14044525  0.62657523  0.27562804  1
  N  N19  4  0.16995417  0.29020978  0.24594849  1
  N  N20  4  0.17666125  0.39958281  0.30221134  1
  N  N21  4  0.18310597  0.41117089  0.84392035  1
  N  N22  4  0.23852607  0.55752810  0.56770021  1
  N  N23  4  0.24345800  0.40707882  0.98000441  1
  O  O24  4  -0.09425041  0.63129177  0.50909915  1
  O  O25  4  -0.03698978  0.31353553  0.50659520  1
  O  O26  4  0.00979198  0.66356128  0.17385739  1
  O  O27  4  0.01021790  0.80455560  0.51929503  1
  O  O28  4  0.05746391  0.53655341  0.77923142  1
  O  O29  4  0.10694287  0.29911737  0.18190247  1
  O  O30  4  0.11598549  0.35884074  0.71121493  1
  O  O31  4  0.11818924  0.20441871  0.50423401  1
  O  O32  4  0.12328814  0.82045811  0.20917482  1
  O  O33  4  0.17588564  0.62680506  0.61100724  1
  O  O34  4  0.20987918  0.53715206  1.09499959  1
  O  O35  4  0.22952844  0.19888190  0.26378554  1
