###############################################################################################
#
# CIF file generated by modified CIFWriter class 
# in pymatgen (v2025.03.10) https://pymatgen.org/
#
###############################################################################################
data_MACE-OFF23(L)_a4984454b38de53
_symmetry_space_group_name_H-M   P2/c
_cell_length_a   9.63153994
_cell_length_b   8.09365003
_cell_length_c   26.12800485
_cell_angle_alpha   90.00000000
_cell_angle_beta   68.06257185
_cell_angle_gamma   90.00000000
_symmetry_Int_Tables_number   13
_chemical_formula_moiety   'C6 H6 N12 O12'
_chemical_formula_sum   'H24 C24 N48 O48'
_cell_volume   1889.31156627
_cell_formula_units_Z   4
loop_
 _symmetry_equiv_pos_site_id
 _symmetry_equiv_pos_as_xyz
  1  'x, y, z'
  2  '-x, -y, -z'
  3  '-x, y, -z+1/2'
  4  'x, -y, z+1/2'
loop_
 _atom_site_type_symbol
 _atom_site_label
 _atom_site_symmetry_multiplicity
 _atom_site_fract_x
 _atom_site_fract_y
 _atom_site_fract_z
 _atom_site_occupancy
  H  H0  4  -0.19577762  0.70230280  0.94323735  1
  H  H1  4  -0.01633105  0.56550393  0.96949407  1
  H  H2  4  0.09951587  0.70047461  0.78144919  1
  H  H3  4  0.11659974  -0.04484735  0.44190064  1
  H  H4  4  0.28070749  -0.04384114  0.34899506  1
  H  H5  4  0.28394447  0.43255999  0.30691977  1
  C  C6  4  -0.08276007  0.74002436  0.91872460  1
  C  C7  4  0.03654146  0.64805627  0.93547004  1
  C  C8  4  0.09343806  0.73861291  0.82188166  1
  C  C9  4  0.10091057  0.93517624  0.92114093  1
  C  C10  4  0.21263460  0.93341918  0.85872506  1
  C  C11  4  0.21293073  0.35177842  0.33910272  1
  N  N12  4  -0.15753129  0.38494555  0.34781327  1
  N  N13  4  -0.12968156  1.03539133  0.91218318  1
  N  N14  4  -0.05623434  0.28918321  0.36142813  1
  N  N15  4  -0.05507900  0.08768817  0.42853719  1
  N  N16  4  0.11001377  0.21400721  0.45074230  1
  N  N17  4  0.12963666  0.08651457  0.32266067  1
  N  N18  4  0.13434452  0.55411638  0.88825365  1
  N  N19  4  0.17845963  -0.00379888  0.27271653  1
  N  N20  4  0.20059990  0.40909914  0.89741480  1
  N  N21  4  0.22208176  0.76272859  0.97039252  1
  N  N22  4  0.30235399  0.78277871  0.84933577  1
  N  N23  4  0.45409754  0.79265377  0.81437185  1
  O  O24  4  -0.27710294  0.58990218  0.88410706  1
  O  O25  4  -0.24511646  0.00342759  0.40796129  1
  O  O26  4  -0.11579397  0.43245957  0.30061847  1
  O  O27  4  -0.07179283  1.17096284  0.90575638  1
  O  O28  4  0.13983220  0.65735327  0.44166922  1
  O  O29  4  0.15838189  0.94099058  0.73425473  1
  O  O30  4  0.22878438  1.13832971  0.77486617  1
  O  O31  4  0.23466320  0.37574330  0.48556024  1
  O  O32  4  0.29500897  0.11667088  0.47154558  1
  O  O33  4  0.30927015  0.64043675  0.35989650  1
  O  O34  4  0.48249174  0.66232047  0.70032734  1
  O  O35  4  0.49191122  0.92881093  0.69608561  1
