###############################################################################################
#
# CIF file generated by modified CIFWriter class 
# in pymatgen (v2025.03.10) https://pymatgen.org/
#
###############################################################################################
data_MACE-OFF23(L)_a4f667988cc1dfd
_symmetry_space_group_name_H-M   Cc
_cell_length_a   10.51576074
_cell_length_b   16.16503426
_cell_length_c   9.86247048
_cell_angle_alpha   90.00000000
_cell_angle_beta   89.81116330
_cell_angle_gamma   90.00000000
_symmetry_Int_Tables_number   9
_chemical_formula_moiety   'C6 H6 N12 O12'
_chemical_formula_sum   'H24 C24 N48 O48'
_cell_volume   1676.48890282
_cell_formula_units_Z   4
loop_
 _symmetry_equiv_pos_site_id
 _symmetry_equiv_pos_as_xyz
  1  'x, y, z'
  2  'x, -y, z+1/2'
  3  'x+1/2, y+1/2, z'
  4  'x+1/2, -y+1/2, z+1/2'
loop_
 _atom_site_type_symbol
 _atom_site_label
 _atom_site_symmetry_multiplicity
 _atom_site_fract_x
 _atom_site_fract_y
 _atom_site_fract_z
 _atom_site_occupancy
  H  H0  4  -0.08806904  0.59909085  0.36749168  1
  H  H1  4  0.05225783  0.17027299  0.86345197  1
  H  H2  4  0.09550343  0.40349301  1.00472296  1
  H  H3  4  0.14076065  0.40400348  0.52469437  1
  H  H4  4  0.18409382  0.17049532  0.66461087  1
  H  H5  4  0.32440276  0.40111898  0.66194599  1
  C  C6  4  -0.00958734  0.63132295  0.32015932  1
  C  C7  4  0.07478693  0.76779971  0.32979862  1
  C  C8  4  0.11162189  0.63033467  0.41212637  1
  C  C9  4  0.12467817  0.36997075  0.61710178  1
  C  C10  4  0.16152992  0.23233965  0.69864472  1
  C  C11  4  0.24589534  0.36880254  0.70908336  1
  N  N12  4  -0.15402072  0.25228633  0.86025918  1
  N  N13  4  -0.07145603  0.54595606  0.12504448  1
  N  N14  4  -0.03998928  0.72000773  0.30301569  1
  N  N15  4  0.02058707  0.59308536  0.19221554  1
  N  N16  4  0.02272908  0.25199883  0.49978762  1
  N  N17  4  0.10778425  0.71788619  0.09171608  1
  N  N18  4  0.12852171  0.28175505  0.93701777  1
  N  N19  4  0.21369469  0.74851187  0.52867782  1
  N  N20  4  0.21570704  0.40677505  0.83724415  1
  N  N21  4  0.27629337  0.71991839  0.22573937  1
  N  N22  4  0.30766642  0.45383935  0.90464883  1
  N  N23  4  0.39037227  0.74751200  0.16845777  1
  O  O24  4  -0.23935466  0.69822023  0.36540806  1
  O  O25  4  -0.16773396  0.46869560  0.68638144  1
  O  O26  4  -0.15845654  0.81949364  0.39513788  1
  O  O27  4  -0.04239205  0.52169695  0.01307344  1
  O  O28  4  -0.02097040  0.69783610  -0.07873582  1
  O  O29  4  0.00047653  0.17864992  0.50384579  1
  O  O30  4  0.23586288  0.17813427  1.02437896  1
  O  O31  4  0.25756198  0.69843918  0.60725412  1
  O  O32  4  0.27851842  0.47790563  1.01671576  1
  O  O33  4  0.39486387  0.81925163  0.13336998  1
  O  O34  4  0.40393429  0.46866316  0.84340109  1
  O  O35  4  0.47567796  0.30200258  0.66348406  1
