###############################################################################################
#
# CIF file generated by modified CIFWriter class 
# in pymatgen (v2025.03.10) https://pymatgen.org/
#
###############################################################################################
data_MACE-OFF23(L)_a65567c21568b1e
_symmetry_space_group_name_H-M   P2/c
_cell_length_a   9.72182701
_cell_length_b   13.81267025
_cell_length_c   13.03101713
_cell_angle_alpha   90.00000000
_cell_angle_beta   75.81082230
_cell_angle_gamma   90.00000000
_symmetry_Int_Tables_number   13
_chemical_formula_moiety   'C6 H6 N12 O12'
_chemical_formula_sum   'H24 C24 N48 O48'
_cell_volume   1696.47681810
_cell_formula_units_Z   4
loop_
 _symmetry_equiv_pos_site_id
 _symmetry_equiv_pos_as_xyz
  1  'x, y, z'
  2  '-x, -y, -z'
  3  '-x, y, -z+1/2'
  4  'x, -y, z+1/2'
loop_
 _atom_site_type_symbol
 _atom_site_label
 _atom_site_symmetry_multiplicity
 _atom_site_fract_x
 _atom_site_fract_y
 _atom_site_fract_z
 _atom_site_occupancy
  H  H0  4  0.12298071  0.13123365  0.60048104  1
  H  H1  4  0.25407008  0.40641699  0.60317712  1
  H  H2  4  0.32396487  0.86984833  1.17603043  1
  H  H3  4  0.39304212  0.15683472  0.30449184  1
  H  H4  4  0.40550449  0.42541413  0.43446177  1
  H  H5  4  0.40583880  0.15977287  0.12040702  1
  C  C6  4  0.20907798  0.82422483  1.05642693  1
  C  C7  4  0.28652149  0.33680892  0.56759631  1
  C  C8  4  0.33990034  0.17596162  0.60672264  1
  C  C9  4  0.37021794  0.80738362  0.88044509  1
  C  C10  4  0.38903408  0.65046113  0.95391759  1
  C  C11  4  0.49828319  0.80588520  0.57033020  1
  N  N12  4  0.03254529  0.69592718  1.12418832  1
  N  N13  4  0.15642300  0.90645328  0.90347986  1
  N  N14  4  0.16517093  0.27757845  0.55977675  1
  N  N15  4  0.22295579  0.67311442  0.84197920  1
  N  N16  4  0.25541510  0.85946113  0.94955571  1
  N  N17  4  0.34306097  0.70349689  0.87184379  1
  N  N18  4  0.34350187  0.69602210  1.23880889  1
  N  N19  4  0.35470374  0.72260268  1.13333694  1
  N  N20  4  0.37032525  0.66668031  0.51838320  1
  N  N21  4  0.44302973  0.92211103  0.44356679  1
  N  N22  4  0.46554803  0.85552936  1.03004149  1
  N  N23  4  0.47780460  0.29772833  0.05964105  1
  O  O24  4  -0.05129909  0.23930409  0.65599540  1
  O  O25  4  0.01284220  0.61075832  1.13864962  1
  O  O26  4  0.03618359  0.90993291  0.95618890  1
  O  O27  4  0.17634060  0.72886393  0.78734960  1
  O  O28  4  0.18066929  0.59306607  0.87051999  1
  O  O29  4  0.20351365  0.05965205  0.31676528  1
  O  O30  4  0.26982026  0.71910511  0.52374285  1
  O  O31  4  0.32970884  0.38902733  0.75801326  1
  O  O32  4  0.33300477  0.06273992  0.00843838  1
  O  O33  4  0.35639447  0.76062629  1.29851416  1
  O  O34  4  0.38733016  0.58479654  0.48388440  1
  O  O35  4  0.48359799  0.03741741  -0.14084710  1
