###############################################################################################
#
# CIF file generated by modified CIFWriter class 
# in pymatgen (v2025.03.10) https://pymatgen.org/
#
###############################################################################################
data_MACE-OFF23(L)_a704035ebb9fa9f
_symmetry_space_group_name_H-M   P2_1/c
_cell_length_a   28.48705367
_cell_length_b   7.48787098
_cell_length_c   7.93257436
_cell_angle_alpha   90.00000000
_cell_angle_beta   86.67185254
_cell_angle_gamma   90.00000000
_symmetry_Int_Tables_number   14
_chemical_formula_moiety   'C6 H6 N12 O12'
_chemical_formula_sum   'H24 C24 N48 O48'
_cell_volume   1689.22284494
_cell_formula_units_Z   4
loop_
 _symmetry_equiv_pos_site_id
 _symmetry_equiv_pos_as_xyz
  1  'x, y, z'
  2  '-x, -y, -z'
  3  '-x+1/2, y+1/2, -z'
  4  'x+1/2, -y+1/2, z'
loop_
 _atom_site_type_symbol
 _atom_site_label
 _atom_site_symmetry_multiplicity
 _atom_site_fract_x
 _atom_site_fract_y
 _atom_site_fract_z
 _atom_site_occupancy
  H  H0  4  0.03306843  0.50984596  0.47888397  1
  H  H1  4  0.07772484  0.38928599  0.24736770  1
  H  H2  4  0.13554068  0.89744370  0.53147838  1
  H  H3  4  0.13688734  0.23545649  0.67868675  1
  H  H4  4  0.18028968  0.77303025  0.30085432  1
  H  H5  4  0.19662173  0.45894081  0.70555104  1
  C  C6  4  0.06996563  0.52638565  0.49494346  1
  C  C7  4  0.09958778  0.44392689  0.34175327  1
  C  C8  4  0.13064641  0.75521969  0.52396342  1
  C  C9  4  0.13102337  0.35188656  0.60204319  1
  C  C10  4  0.16027887  0.67330610  0.37239192  1
  C  C11  4  0.17026483  0.49961321  0.62061443  1
  N  N12  4  0.04821367  0.82900887  0.58402803  1
  N  N13  4  0.05351187  0.34948188  0.75758135  1
  N  N14  4  0.08145218  0.71546468  0.50204486  1
  N  N15  4  0.08515197  0.42924015  0.64122879  1
  N  N16  4  0.11069593  0.68098037  0.13749492  1
  N  N17  4  0.12505962  0.30550935  0.42557011  1
  N  N18  4  0.13140340  0.57454790  0.25915931  1
  N  N19  4  0.14793415  0.66722897  0.67318272  1
  N  N20  4  0.15736025  0.20197432  0.33354180  1
  N  N21  4  0.16883680  0.77339850  0.79277955  1
  N  N22  4  0.19035093  0.55128841  0.45609522  1
  N  N23  4  0.23094275  0.48409451  0.38064860  1
  O  O24  4  0.00939843  0.76894110  0.61620937  1
  O  O25  4  0.01263506  0.39190403  0.74860166  1
  O  O26  4  0.06091111  0.98002984  0.60938621  1
  O  O27  4  0.07000325  0.25372342  0.86020058  1
  O  O28  4  0.08717778  0.60362201  0.03880218  1
  O  O29  4  0.11913549  0.83912431  0.14052017  1
  O  O30  4  0.15587168  0.20605692  0.18265014  1
  O  O31  4  0.15719099  0.92789836  0.79647594  1
  O  O32  4  0.18340308  0.11282987  0.41642827  1
  O  O33  4  0.19434527  0.69752600  0.88576171  1
  O  O34  4  0.24235429  0.54214786  0.24264650  1
  O  O35  4  0.24885148  -0.12850483  0.54006816  1
