###############################################################################################
#
# CIF file generated by modified CIFWriter class 
# in pymatgen (v2025.03.10) https://pymatgen.org/
#
###############################################################################################
data_MACE-OFF23(L)_ab8755cb0f9aafc
_symmetry_space_group_name_H-M   P2_1/c
_cell_length_a   7.98775067
_cell_length_b   13.67339177
_cell_length_c   13.68136595
_cell_angle_alpha   90.00000000
_cell_angle_beta   94.91392357
_cell_angle_gamma   90.00000000
_symmetry_Int_Tables_number   14
_chemical_formula_moiety   'C6 H6 N12 O12'
_chemical_formula_sum   'H24 C24 N48 O48'
_cell_volume   1488.78173222
_cell_formula_units_Z   4
loop_
 _symmetry_equiv_pos_site_id
 _symmetry_equiv_pos_as_xyz
  1  'x, y, z'
  2  '-x, -y, -z'
  3  '-x, y+1/2, -z+1/2'
  4  'x, -y+1/2, z+1/2'
loop_
 _atom_site_type_symbol
 _atom_site_label
 _atom_site_symmetry_multiplicity
 _atom_site_fract_x
 _atom_site_fract_y
 _atom_site_fract_z
 _atom_site_occupancy
  H  H0  4  0.00978324  0.28437548  0.84118739  1
  H  H1  4  0.12834635  0.15832326  0.06922586  1
  H  H2  4  0.26270127  0.30413364  0.32260139  1
  H  H3  4  0.28614823  -0.03956707  0.38194067  1
  H  H4  4  0.29182414  0.48750251  0.58898961  1
  H  H5  4  0.46211113  0.95359554  0.64566043  1
  C  C6  4  0.10147258  0.17223058  0.30674315  1
  C  C7  4  0.17486626  0.35348267  0.64482509  1
  C  C8  4  0.26479816  0.01950019  0.32998611  1
  C  C9  4  0.26777085  0.23069050  0.29361340  1
  C  C10  4  0.28077871  0.04914541  0.15822258  1
  C  C11  4  0.42834851  0.07721440  0.31373729  1
  N  N12  4  -0.11832346  0.31776545  0.66881497  1
  N  N13  4  0.03699981  0.14372779  0.20774630  1
  N  N14  4  0.07688619  -0.07146436  0.21115217  1
  N  N15  4  0.12263272  0.08930432  0.46447676  1
  N  N16  4  0.13539550  0.08360043  0.36376708  1
  N  N17  4  0.21849528  0.51590779  0.73150287  1
  N  N18  4  0.26476602  0.23101635  0.18717051  1
  N  N19  4  0.37229794  0.21521145  0.63640931  1
  N  N20  4  0.40673098  0.17745496  0.34402708  1
  N  N21  4  0.41317634  0.52410557  0.32353412  1
  N  N22  4  0.44498285  0.07168760  0.20772172  1
  N  N23  4  0.44879975  0.72852102  0.11795946  1
  O  O24  4  -0.21029571  0.28477453  0.72646847  1
  O  O25  4  -0.14846428  0.32682242  0.58178563  1
  O  O26  4  0.02019245  0.61158672  0.77989921  1
  O  O27  4  0.02526183  -0.07818872  0.12550222  1
  O  O28  4  0.03946523  0.15551096  0.49331658  1
  O  O29  4  0.19222815  0.02563620  0.51483255  1
  O  O30  4  0.29562809  0.98683466  0.76269337  1
  O  O31  4  0.33386146  0.82100751  0.58375940  1
  O  O32  4  0.37637557  0.26513904  0.04990383  1
  O  O33  4  0.41945078  0.50412721  0.40912648  1
  O  O34  4  0.45090044  0.34844338  0.18079094  1
  O  O35  4  0.45702135  0.81651155  0.11949375  1
