###############################################################################################
#
# CIF file generated by modified CIFWriter class 
# in pymatgen (v2025.03.10) https://pymatgen.org/
#
###############################################################################################
data_MACE-OFF23(L)_aee7836ca3af69d
_symmetry_space_group_name_H-M   Pmn2_1
_cell_length_a   26.28035506
_cell_length_b   7.01726229
_cell_length_c   13.78360049
_cell_angle_alpha   90.00000000
_cell_angle_beta   90.00000000
_cell_angle_gamma   90.00000000
_symmetry_Int_Tables_number   31
_chemical_formula_moiety   'C6 H6 N12 O12'
_chemical_formula_sum   'H24 C24 N48 O48'
_cell_volume   2541.91845968
_cell_formula_units_Z   4
loop_
 _symmetry_equiv_pos_site_id
 _symmetry_equiv_pos_as_xyz
  1  'x, y, z'
  2  '-x+1/2, -y, z+1/2'
  3  '-x, y, z'
  4  'x+1/2, -y, z+1/2'
loop_
 _atom_site_type_symbol
 _atom_site_label
 _atom_site_symmetry_multiplicity
 _atom_site_fract_x
 _atom_site_fract_y
 _atom_site_fract_z
 _atom_site_occupancy
  H  H0  4  0.16284519  0.49641493  0.92909379  1
  H  H1  4  0.16490773  0.47872038  0.63832879  1
  H  H2  4  0.18660849  0.83451590  0.25949185  1
  H  H3  4  0.20755071  0.21334797  0.97242626  1
  H  H4  4  0.23755543  0.65819791  0.68364331  1
  H  H5  4  0.24157112  -0.01703735  0.70877832  1
  C  C6  4  0.18451317  0.44059239  0.86877737  1
  C  C7  4  0.18531405  0.41353885  0.69762310  1
  C  C8  4  0.21396696  0.25187577  0.89749642  1
  C  C9  4  0.22229340  0.76242815  0.27239654  1
  C  C10  4  0.23072652  0.11827270  0.73949353  1
  C  C11  4  0.23275265  0.53342018  0.72863765  1
  N  N12  4  0.10506807  0.49680420  0.78065922  1
  N  N13  4  0.15290352  0.40319603  0.78443915  1
  N  N14  4  0.15671009  0.00721063  0.83366842  1
  N  N15  4  0.17900589  0.13385113  0.59116343  1
  N  N16  4  0.18494657  0.54370118  0.15367854  1
  N  N17  4  0.19788558  0.64666546  0.43335090  1
  N  N18  4  0.20285873  0.22753956  0.66839041  1
  N  N19  4  0.20338074  0.09466502  0.83149189  1
  N  N20  4  0.21922687  0.58079697  0.82767803  1
  N  N21  4  0.22113880  0.57890951  0.22472450  1
  N  N22  4  0.23225093  0.73769496  0.37516028  1
  N  N23  4  0.24690322  0.70653169  0.88166266  1
  O  O24  4  0.08548695  0.52726396  0.85765860  1
  O  O25  4  0.08824715  0.52498298  0.70092713  1
  O  O26  4  0.12992552  0.04336760  0.90195520  1
  O  O27  4  0.14617183  0.21978895  0.54936873  1
  O  O28  4  0.14812363  -0.10435848  0.76801215  1
  O  O29  4  0.15489646  0.66937658  0.13746872  1
  O  O30  4  0.15580342  0.62589920  0.40053807  1
  O  O31  4  0.18631856  0.38761897  0.11633058  1
  O  O32  4  0.19514013  -0.02361514  0.57244018  1
  O  O33  4  0.21353064  0.59653008  0.51227426  1
  O  O34  4  0.21802248  0.21583622  0.34021105  1
  O  O35  4  0.23309874  0.73233256  0.96446410  1
