###############################################################################################
#
# CIF file generated by modified CIFWriter class 
# in pymatgen (v2025.03.10) https://pymatgen.org/
#
###############################################################################################
data_MACE-OFF23(L)_b317c8bd3fd8b24
_symmetry_space_group_name_H-M   P2_1/c
_cell_length_a   8.48022509
_cell_length_b   13.45009184
_cell_length_c   15.49463916
_cell_angle_alpha   90.00000000
_cell_angle_beta   67.94644067
_cell_angle_gamma   90.00000000
_symmetry_Int_Tables_number   14
_chemical_formula_moiety   'C6 H6 N12 O12'
_chemical_formula_sum   'H24 C24 N48 O48'
_cell_volume   1638.00684555
_cell_formula_units_Z   4
loop_
 _symmetry_equiv_pos_site_id
 _symmetry_equiv_pos_as_xyz
  1  'x, y, z'
  2  '-x, -y, -z'
  3  '-x, y+1/2, -z+1/2'
  4  'x, -y+1/2, z+1/2'
loop_
 _atom_site_type_symbol
 _atom_site_label
 _atom_site_symmetry_multiplicity
 _atom_site_fract_x
 _atom_site_fract_y
 _atom_site_fract_z
 _atom_site_occupancy
  H  H0  4  -0.00266089  0.47584817  0.91295299  1
  H  H1  4  0.09635016  -0.02720542  0.14261383  1
  H  H2  4  0.10095433  0.30931896  0.91059569  1
  H  H3  4  0.27431492  0.26079421  0.13592979  1
  H  H4  4  0.33169651  -0.08927905  0.17560874  1
  H  H5  4  0.48827046  0.80113575  0.83259275  1
  C  C6  4  0.08191866  0.04603495  0.34405265  1
  C  C7  4  0.13666313  0.02440808  0.18392064  1
  C  C8  4  0.15036207  0.15586932  0.34269597  1
  C  C9  4  0.24340391  0.19483815  0.17911173  1
  C  C10  4  0.29178220  -0.01636713  0.20506746  1
  C  C11  4  0.39834226  0.15487663  0.20018641  1
  N  N12  4  -0.14110822  0.52605183  0.79859130  1
  N  N13  4  -0.02874040  0.23806032  0.78855590  1
  N  N14  4  0.00039213  0.46174445  0.77636638  1
  N  N15  4  0.11590406  0.14214864  0.06753982  1
  N  N16  4  0.12204746  0.21643173  0.27265592  1
  N  N17  4  0.18682020  0.38350188  0.63338081  1
  N  N18  4  0.22678498  -0.01932419  0.30555315  1
  N  N19  4  0.25758560  -0.09762133  0.35390788  1
  N  N20  4  0.33549222  0.16238395  0.30127744  1
  N  N21  4  0.43150621  0.12501658  0.34845897  1
  N  N22  4  0.43517520  0.05173174  0.17129003  1
  N  N23  4  0.43601029  0.53174484  0.41369574  1
  O  O24  4  -0.21682481  0.54406885  0.87958414  1
  O  O25  4  -0.17530455  0.55419134  0.73360533  1
  O  O26  4  -0.12781579  0.26775459  0.36824716  1
  O  O27  4  -0.04919739  0.20414005  0.72046775  1
  O  O28  4  0.02878529  0.08021392  0.05103038  1
  O  O29  4  0.15597252  0.22252999  0.03137036  1
  O  O30  4  0.16810750  -0.10382967  0.43534203  1
  O  O31  4  0.34462075  0.59959007  0.45307407  1
  O  O32  4  0.35397072  0.10284710  0.42889979  1
  O  O33  4  0.37586724  0.65071983  0.81023764  1
  O  O34  4  0.41650901  0.62052943  0.19482763  1
  O  O35  4  0.42421200  1.05380848  0.94051933  1
