###############################################################################################
#
# CIF file generated by modified CIFWriter class 
# in pymatgen (v2025.03.10) https://pymatgen.org/
#
###############################################################################################
data_MACE-OFF23(L)_b6c0dfc6df6355
_symmetry_space_group_name_H-M   P2_1/c
_cell_length_a   12.28995223
_cell_length_b   13.83972186
_cell_length_c   9.65709877
_cell_angle_alpha   90.00000000
_cell_angle_beta   82.76760951
_cell_angle_gamma   90.00000000
_symmetry_Int_Tables_number   14
_chemical_formula_moiety   'C6 H6 N12 O12'
_chemical_formula_sum   'H24 C24 N48 O48'
_cell_volume   1629.50249321
_cell_formula_units_Z   4
loop_
 _symmetry_equiv_pos_site_id
 _symmetry_equiv_pos_as_xyz
  1  'x, y, z'
  2  '-x, -y, -z'
  3  '-x, y+1/2, -z+1/2'
  4  'x, -y+1/2, z+1/2'
loop_
 _atom_site_type_symbol
 _atom_site_label
 _atom_site_symmetry_multiplicity
 _atom_site_fract_x
 _atom_site_fract_y
 _atom_site_fract_z
 _atom_site_occupancy
  H  H0  4  0.06767724  0.01116810  0.90875706  1
  H  H1  4  0.07907720  0.59435371  0.21734709  1
  H  H2  4  0.28178845  0.30119705  0.17976857  1
  H  H3  4  0.29491337  0.09001113  0.48777862  1
  H  H4  4  0.35409609  0.62824523  0.40191256  1
  H  H5  4  0.47626886  0.52367426  0.27383745  1
  C  C6  4  0.14814761  0.48634227  0.35022405  1
  C  C7  4  0.15611325  -0.05776404  0.72381095  1
  C  C8  4  0.27431666  0.37571847  0.21326398  1
  C  C9  4  0.28390178  0.05261829  0.58678757  1
  C  C10  4  0.30966033  -0.07830702  0.84403604  1
  C  C11  4  0.39286550  0.50768140  0.25704385  1
  N  N12  4  0.11990753  0.31186848  0.37387619  1
  N  N13  4  0.13704540  -0.02608163  0.47721261  1
  N  N14  4  0.16918394  0.39029058  0.29690519  1
  N  N15  4  0.18711443  -0.00658921  0.59592868  1
  N  N16  4  0.19568028  -0.06115811  1.06761670  1
  N  N17  4  0.19713961  -0.21900452  0.80380704  1
  N  N18  4  0.23153669  0.52050809  0.43573683  1
  N  N19  4  0.24063378  -0.12791947  0.75307873  1
  N  N20  4  0.36787369  0.40585695  0.28348562  1
  N  N21  4  0.38095514  -0.00398157  0.60958355  1
  N  N22  4  0.38394586  0.13450873  0.90979410  1
  N  N23  4  0.41113195  -0.08282660  0.52620275  1
  O  O24  4  0.06336488  0.33173194  0.48162448  1
  O  O25  4  0.06599760  0.58690441  -0.01142635  1
  O  O26  4  0.10360757  0.54139706  0.61791083  1
  O  O27  4  0.11527389  -0.24487274  0.75812800  1
  O  O28  4  0.13732439  0.23328466  0.32308146  1
  O  O29  4  0.16776662  0.47824383  -0.12438668  1
  O  O30  4  0.24821468  0.76192883  0.38280121  1
  O  O31  4  0.26243915  -0.10803028  1.11933263  1
  O  O32  4  0.33821664  0.21073421  0.93878497  1
  O  O33  4  0.38178856  -0.08260790  0.41156195  1
  O  O34  4  0.44367861  0.09062052  0.97760295  1
  O  O35  4  0.46857044  -0.14206631  0.57452237  1
