###############################################################################################
#
# CIF file generated by modified CIFWriter class 
# in pymatgen (v2025.03.10) https://pymatgen.org/
#
###############################################################################################
data_MACE-OFF23(L)_b80560c85b404a3
_symmetry_space_group_name_H-M   P2_1/c
_cell_length_a   9.96396680
_cell_length_b   11.05789655
_cell_length_c   13.95909782
_cell_angle_alpha   90.00000000
_cell_angle_beta   86.29302068
_cell_angle_gamma   90.00000000
_symmetry_Int_Tables_number   14
_chemical_formula_moiety   'C6 H6 N12 O12'
_chemical_formula_sum   'H24 C24 N48 O48'
_cell_volume   1534.80265088
_cell_formula_units_Z   4
loop_
 _symmetry_equiv_pos_site_id
 _symmetry_equiv_pos_as_xyz
  1  'x, y, z'
  2  '-x, -y, -z'
  3  '-x, y+1/2, -z+1/2'
  4  'x, -y+1/2, z+1/2'
loop_
 _atom_site_type_symbol
 _atom_site_label
 _atom_site_symmetry_multiplicity
 _atom_site_fract_x
 _atom_site_fract_y
 _atom_site_fract_z
 _atom_site_occupancy
  H  H0  4  -0.02999015  0.73316501  0.06249389  1
  H  H1  4  0.09015779  0.54791334  0.06786747  1
  H  H2  4  0.23237562  0.77393521  0.26668625  1
  H  H3  4  0.30128977  0.89145040  -0.08541919  1
  H  H4  4  0.42010253  0.86473645  0.18318701  1
  H  H5  4  0.42353980  0.79459141  0.42446258  1
  C  C6  4  0.07687818  0.74723199  0.06719034  1
  C  C7  4  0.15561981  0.62534050  0.07156732  1
  C  C8  4  0.22788433  0.73786922  0.69053727  1
  C  C9  4  0.27274673  0.65866704  0.47931886  1
  C  C10  4  0.35235745  0.77988838  0.48513239  1
  C  C11  4  0.35323112  0.82297489  0.13485140  1
  N  N12  4  -0.00558211  0.81656668  0.22731264  1
  N  N13  4  0.04429078  0.61447987  0.43347005  1
  N  N14  4  0.10265976  0.80988200  0.15749611  1
  N  N15  4  0.13024289  0.81357568  -0.01621315  1
  N  N16  4  0.20982787  0.86453957  0.66539457  1
  N  N17  4  0.24048157  0.54570918  -0.08340129  1
  N  N18  4  0.26087254  0.88240611  0.49504807  1
  N  N19  4  0.30132951  0.55031308  0.19248584  1
  N  N20  4  0.30718425  0.90801186  0.06465335  1
  N  N21  4  0.36513144  1.02129539  0.05477769  1
  N  N22  4  0.41979771  0.76671709  0.57297764  1
  N  N23  4  0.44855361  0.30256914  0.91928197  1
  O  O24  4  -0.11663938  0.80718180  0.19980536  1
  O  O25  4  -0.07349137  0.88527287  -0.03909049  1
  O  O26  4  0.02367985  0.66218847  0.80875651  1
  O  O27  4  0.09393953  0.56041181  0.36482362  1
  O  O28  4  0.14803644  1.02481655  0.42388280  1
  O  O29  4  0.30027756  1.04530974  0.65172972  1
  O  O30  4  0.31885907  0.94089486  0.34708390  1
  O  O31  4  0.35657480  0.42909943  0.47782996  1
  O  O32  4  0.37245970  0.91900489  0.75577099  1
  O  O33  4  0.39846781  0.27685609  0.84608557  1
  O  O34  4  0.39947861  0.14084668  0.48712216  1
  O  O35  4  0.41627109  1.06219154  0.12360234  1
