###############################################################################################
#
# CIF file generated by modified CIFWriter class 
# in pymatgen (v2025.03.10) https://pymatgen.org/
#
###############################################################################################
data_MACE-OFF23(L)_bbbeaf3db18ae5
_symmetry_space_group_name_H-M   P-1
_cell_length_a   14.13655781
_cell_length_b   13.98967605
_cell_length_c   10.71357910
_cell_angle_alpha   90.03156527
_cell_angle_beta   95.35607468
_cell_angle_gamma   85.47010685
_symmetry_Int_Tables_number   2
_chemical_formula_moiety   'C6 H6 N12 O12'
_chemical_formula_sum   'H24 C24 N48 O48'
_cell_volume   2102.88997102
_cell_formula_units_Z   4
loop_
 _symmetry_equiv_pos_site_id
 _symmetry_equiv_pos_as_xyz
  1  'x, y, z'
  2  '-x, -y, -z'
loop_
 _atom_site_type_symbol
 _atom_site_label
 _atom_site_symmetry_multiplicity
 _atom_site_fract_x
 _atom_site_fract_y
 _atom_site_fract_z
 _atom_site_occupancy
  H  H0  2  0.12593416  0.38785991  0.02195270  1
  H  H1  2  0.12899165  0.42163763  0.24169363  1
  H  H2  2  0.14424587  0.83322615  0.16206662  1
  H  H3  2  0.16570091  0.09747547  0.10343974  1
  H  H4  2  0.17045095  0.79762515  -0.05114923  1
  H  H5  2  0.17173178  0.13191790  0.32383455  1
  H  H6  2  0.21431305  0.55061187  0.14116842  1
  H  H7  2  0.37908881  0.54026233  0.20133682  1
  H  H8  2  0.40348799  0.35258878  0.16393503  1
  H  H9  2  0.42386735  0.18698394  0.20949221  1
  H  H10  2  0.43493200  0.81881642  0.25624342  1
  H  H11  2  0.46278613  0.77977954  0.04249741  1
  C  C12  2  0.17344055  0.33760482  0.07869694  1
  C  C13  2  0.17539423  0.35941628  0.22187965  1
  C  C14  2  0.19652660  0.16401274  0.12743036  1
  C  C15  2  0.19978870  0.18692316  0.27053553  1
  C  C16  2  0.20718037  0.78527522  0.15365439  1
  C  C17  2  0.22534994  0.76303156  0.01448956  1
  C  C18  2  0.24232532  0.61953016  0.13295007  1
  C  C19  2  0.33558034  0.32313098  0.16859100  1
  C  C20  2  0.34924604  0.21218068  0.19926830  1
  C  C21  2  0.35340382  0.61213993  0.17194412  1
  C  C22  2  0.38157339  0.77633841  0.21003488  1
  C  C23  2  0.39833793  0.75285160  0.07063825  1
  N  N24  2  0.04891677  0.23298106  0.01708804  1
  N  N25  2  0.09261480  0.29153125  0.38983718  1
  N  N26  2  0.10803165  0.67547082  0.25115146  1
  N  N27  2  0.14406260  0.27694760  0.28295540  1
  N  N28  2  0.14437226  0.24121005  0.05226928  1
  N  N29  2  0.15848567  0.61914697  -0.07945851  1
  N  N30  2  0.19649592  0.69214669  0.20863132  1
  N  N31  2  0.22467448  0.65861150  0.00637965  1
  N  N32  2  0.27225231  0.34560239  0.05603315  1
  N  N33  2  0.27640676  0.37746061  0.25289177  1
  N  N34  2  0.28258942  0.92423581  0.23891766  1
  N  N35  2  0.28851278  0.82701402  0.21823744  1
  N  N36  2  0.29539502  0.16092976  0.10183582  1
  N  N37  2  0.30087680  0.19351960  0.30931187  1
  N  N38  2  0.30255820  0.32069751  -0.05930946  1
  N  N39  2  0.31141104  0.38228935  0.37863015  1
  N  N40  2  0.31667849  0.79539835  -0.00765762  1
  N  N41  2  0.32918344  0.83121582  -0.12772439  1
  N  N42  2  0.33833159  0.08400485  0.04122200  1
  N  N43  2  0.34696301  0.13364677  0.40489912  1
  N  N44  2  0.36033972  0.67179331  0.38692656  1
  N  N45  2  0.38393585  0.68121802  0.26508789  1
  N  N46  2  0.40626357  0.64759363  0.07426354  1
  N  N47  2  0.41352867  0.59510964  -0.03221473  1
  O  O48  2  0.00203762  0.30515230  -0.02162311  1
  O  O49  2  0.01903201  0.15455776  0.02446578  1
  O  O50  2  0.05168104  0.36928617  0.39828397  1
  O  O51  2  0.06066733  0.74531138  0.28178372  1
  O  O52  2  0.09055450  0.59285551  0.25662152  1
  O  O53  2  0.09221095  0.22278186  0.45720521  1
  O  O54  2  0.13063207  0.66731725  -0.17063148  1
  O  O55  2  0.13898219  0.53903744  -0.05606706  1
  O  O56  2  0.20315100  0.96432329  0.23703197  1
  O  O57  2  0.24266533  0.32499293  -0.14695847  1
  O  O58  2  0.25350231  0.40174171  0.45193932  1
  O  O59  2  0.25788417  0.84689608  -0.19730028  1
  O  O60  2  0.28646725  0.02584588  -0.00567933  1
  O  O61  2  0.29578701  0.09830767  0.47287734  1
  O  O62  2  0.33336167  0.59491738  0.41285462  1
  O  O63  2  0.35648014  0.96228398  0.25919273  1
  O  O64  2  0.37144071  0.73990436  0.45382338  1
  O  O65  2  0.38709321  0.29809465  -0.06024246  1
  O  O66  2  0.39678751  0.51140115  -0.02575503  1
  O  O67  2  0.39702467  0.36924797  0.39938955  1
  O  O68  2  0.40924235  0.84619310  -0.14572607  1
  O  O69  2  0.42284007  0.08441872  0.03751038  1
  O  O70  2  0.43251072  0.12799767  0.41205653  1
  O  O71  2  0.43758837  0.63549807  -0.12235698  1
