###############################################################################################
#
# CIF file generated by modified CIFWriter class 
# in pymatgen (v2025.03.10) https://pymatgen.org/
#
###############################################################################################
data_MACE-OFF23(L)_bcd7108b4ca39ca
_symmetry_space_group_name_H-M   P2_1/c
_cell_length_a   15.13273394
_cell_length_b   13.07670964
_cell_length_c   8.85830952
_cell_angle_alpha   90.00000000
_cell_angle_beta   93.46823473
_cell_angle_gamma   90.00000000
_symmetry_Int_Tables_number   14
_chemical_formula_moiety   'C6 H6 N12 O12'
_chemical_formula_sum   'H24 C24 N48 O48'
_cell_volume   1749.72817232
_cell_formula_units_Z   4
loop_
 _symmetry_equiv_pos_site_id
 _symmetry_equiv_pos_as_xyz
  1  'x, y, z'
  2  '-x, -y, -z'
  3  '-x, y+1/2, -z+1/2'
  4  'x, -y+1/2, z+1/2'
loop_
 _atom_site_type_symbol
 _atom_site_label
 _atom_site_symmetry_multiplicity
 _atom_site_fract_x
 _atom_site_fract_y
 _atom_site_fract_z
 _atom_site_occupancy
  H  H0  4  0.15581144  -0.13330447  0.91304220  1
  H  H1  4  0.19052584  0.15719798  0.78025463  1
  H  H2  4  0.23047404  -0.13893614  0.68628385  1
  H  H3  4  0.32172508  0.20345442  0.91138601  1
  H  H4  4  0.38805491  0.55393358  0.65262566  1
  H  H5  4  0.46381582  0.56262277  0.42353247  1
  C  C6  4  0.20819323  0.57712930  0.41182460  1
  C  C7  4  0.22538866  0.08943132  0.82008091  1
  C  C8  4  0.25811773  -0.08118779  0.76253160  1
  C  C9  4  0.31439444  0.12122778  0.90949395  1
  C  C10  4  0.34695549  0.53017148  0.55466073  1
  C  C11  4  0.39644719  -0.03578621  0.90456555  1
  N  N12  4  0.07842973  0.03469077  0.87383638  1
  N  N13  4  0.17097971  0.02648212  0.91506174  1
  N  N14  4  0.18105984  0.02506741  0.56865677  1
  N  N15  4  0.24429561  0.47914979  0.19546252  1
  N  N16  4  0.24588696  0.65565215  0.65846048  1
  N  N17  4  0.26904458  0.59362977  0.54033034  1
  N  N18  4  0.27285758  0.11470488  1.17107453  1
  N  N19  4  0.32534340  0.07882198  1.06080904  1
  N  N20  4  0.34970491  0.60398577  0.30004642  1
  N  N21  4  0.39306575  0.42801132  0.35589388  1
  N  N22  4  0.39812596  0.65540400  0.19299672  1
  N  N23  4  0.42170190  0.09881260  0.71578715  1
  O  O24  4  0.03681505  -0.04428552  0.86628402  1
  O  O25  4  0.05092589  0.11979859  0.85497365  1
  O  O26  4  0.14261795  0.10473634  0.54949107  1
  O  O27  4  0.17389302  -0.19626754  1.14469432  1
  O  O28  4  0.17539905  -0.05064896  0.49145937  1
  O  O29  4  0.23173955  0.19194954  1.14057904  1
  O  O30  4  0.27539551  0.43322860  0.78793811  1
  O  O31  4  0.30001511  -0.16608293  1.26295175  1
  O  O32  4  0.36018299  0.67133778  0.07139027  1
  O  O33  4  0.39217620  0.32309238  0.16135802  1
  O  O34  4  0.47218403  -0.18083208  0.73414302  1
  O  O35  4  0.47620434  0.45774572  0.16522239  1
