###############################################################################################
#
# CIF file generated by modified CIFWriter class 
# in pymatgen (v2025.03.10) https://pymatgen.org/
#
###############################################################################################
data_MACE-OFF23(L)_bdf5a215e75f572
_symmetry_space_group_name_H-M   P222_1
_cell_length_a   7.78806664
_cell_length_b   8.48345397
_cell_length_c   28.05565217
_cell_angle_alpha   90.00000000
_cell_angle_beta   90.00000000
_cell_angle_gamma   90.00000000
_symmetry_Int_Tables_number   17
_chemical_formula_moiety   'C6 H6 N12 O12'
_chemical_formula_sum   'H24 C24 N48 O48'
_cell_volume   1853.62865870
_cell_formula_units_Z   4
loop_
 _symmetry_equiv_pos_site_id
 _symmetry_equiv_pos_as_xyz
  1  'x, y, z'
  2  '-x, -y, z+1/2'
  3  'x, -y, -z'
  4  '-x, y, -z+1/2'
loop_
 _atom_site_type_symbol
 _atom_site_label
 _atom_site_symmetry_multiplicity
 _atom_site_fract_x
 _atom_site_fract_y
 _atom_site_fract_z
 _atom_site_occupancy
  H  H0  4  -0.17759586  0.42380435  0.65056956  1
  H  H1  4  -0.00936573  -0.02736280  0.68007797  1
  H  H2  4  -0.00899018  0.26242959  0.52225733  1
  H  H3  4  0.08967531  0.00969866  0.54003728  1
  H  H4  4  0.11321284  0.48990049  0.35788926  1
  H  H5  4  0.28215270  0.05917573  0.67170927  1
  C  C6  4  -0.09501983  0.33367198  0.63592400  1
  C  C7  4  0.00527179  0.06357240  0.65337079  1
  C  C8  4  0.01177326  0.24930827  0.56013549  1
  C  C9  4  0.07731508  0.07860414  0.57210484  1
  C  C10  4  0.09519066  0.38998397  0.63042135  1
  C  C11  4  0.19572210  0.12091352  0.64801814  1
  N  N12  4  -0.29577595  0.22779272  0.57657971  1
  N  N13  4  -0.15433181  0.21292826  0.71294831  1
  N  N14  4  -0.13931222  0.29514229  0.58699698  1
  N  N15  4  -0.10889869  0.19295334  0.66532178  1
  N  N16  4  -0.06203299  -0.15973812  0.60086310  1
  N  N17  4  -0.03889375  0.00338956  0.60617469  1
  N  N18  4  0.12029510  0.37363213  0.57900072  1
  N  N19  4  0.20263648  0.28690274  0.65883544  1
  N  N20  4  0.23851516  0.08790927  0.59815481  1
  N  N21  4  0.27871271  0.40155594  0.55840575  1
  N  N22  4  0.35083388  0.34903830  0.68068430  1
  N  N23  4  0.36129921  -0.03132205  0.58876034  1
  O  O24  4  -0.41141991  0.25758607  0.60381241  1
  O  O25  4  -0.30205887  0.14802068  0.54087417  1
  O  O26  4  -0.17593390  0.34595981  0.72692193  1
  O  O27  4  -0.16998888  0.09380912  0.73634999  1
  O  O28  4  -0.08809504  -0.23545554  0.63668885  1
  O  O29  4  -0.05944830  -0.20917138  0.56064502  1
  O  O30  4  0.30449802  0.33342295  0.52112833  1
  O  O31  4  0.35638610  -0.08776199  0.54954582  1
  O  O32  4  0.35689331  0.49025324  0.68383632  1
  O  O33  4  0.37107226  0.49229151  0.57909852  1
  O  O34  4  0.45303456  0.25427769  0.69547980  1
  O  O35  4  0.46235517  -0.05885483  0.62034423  1
