###############################################################################################
#
# CIF file generated by modified CIFWriter class 
# in pymatgen (v2025.03.10) https://pymatgen.org/
#
###############################################################################################
data_MACE-OFF23(L)_bee46e93af96fde
_symmetry_space_group_name_H-M   C2
_cell_length_a   13.88567923
_cell_length_b   8.10643715
_cell_length_c   14.35449804
_cell_angle_alpha   90.00000000
_cell_angle_beta   89.00129044
_cell_angle_gamma   90.00000000
_symmetry_Int_Tables_number   5
_chemical_formula_moiety   'C6 H6 N12 O12'
_chemical_formula_sum   'H24 C24 N48 O48'
_cell_volume   1615.54544510
_cell_formula_units_Z   4
loop_
 _symmetry_equiv_pos_site_id
 _symmetry_equiv_pos_as_xyz
  1  'x, y, z'
  2  '-x, y, -z'
  3  'x+1/2, y+1/2, z'
  4  '-x+1/2, y+1/2, -z'
loop_
 _atom_site_type_symbol
 _atom_site_label
 _atom_site_symmetry_multiplicity
 _atom_site_fract_x
 _atom_site_fract_y
 _atom_site_fract_z
 _atom_site_occupancy
  H  H0  4  -0.01687211  0.52496790  0.23542957  1
  H  H1  4  0.08772752  0.40843716  0.11810539  1
  H  H2  4  0.17314267  0.87826538  0.14974132  1
  H  H3  4  0.19715021  -0.13555304  0.68713737  1
  H  H4  4  0.20198147  0.49247882  0.42852019  1
  H  H5  4  0.20581632  0.35894574  0.73622731  1
  C  C6  4  0.05766223  0.55888030  0.24453815  1
  C  C7  4  0.12602954  0.48151564  0.16852794  1
  C  C8  4  0.16895102  0.76233757  0.18679154  1
  C  C9  4  0.18749943  0.53672914  0.35911325  1
  C  C10  4  0.24454916  -0.04394730  0.71627804  1
  C  C11  4  0.24923437  0.24868525  0.73859669  1
  N  N12  4  0.03485126  0.84749731  0.28927974  1
  N  N13  4  0.04098701  0.37277972  0.37753366  1
  N  N14  4  0.07318645  0.73369467  0.22764704  1
  N  N15  4  0.08636792  0.51043339  0.33801641  1
  N  N16  4  0.12532630  0.09127961  0.82179514  1
  N  N17  4  0.14985916  0.65416155  0.02918707  1
  N  N18  4  0.17386687  0.62298483  0.12291484  1
  N  N19  4  0.19148725  0.10064807  0.74967747  1
  N  N20  4  0.19530219  0.37858249  0.21464518  1
  N  N21  4  0.20673905  0.71239748  0.35098679  1
  N  N22  4  0.22170232  0.22715532  0.17583519  1
  N  N23  4  0.22285966  0.80928887  0.42824819  1
  O  O24  4  -0.03798409  0.33923502  0.34908351  1
  O  O25  4  -0.03183656  0.80167072  0.33774181  1
  O  O26  4  0.07099848  0.98349938  0.28738965  1
  O  O27  4  0.08417550  0.30246523  0.43805783  1
  O  O28  4  0.09501679  -0.04428676  0.84085756  1
  O  O29  4  0.10238977  0.22124377  0.85732191  1
  O  O30  4  0.12264795  0.53681575  -0.01481362  1
  O  O31  4  0.16288708  0.79288142  0.00169652  1
  O  O32  4  0.17477303  0.17883986  0.11122145  1
  O  O33  4  0.19570291  0.75312310  0.50230177  1
  O  O34  4  0.21333653  -0.34501429  0.78699859  1
  O  O35  4  0.24281996  0.44412997  0.58595267  1
