###############################################################################################
#
# CIF file generated by modified CIFWriter class 
# in pymatgen (v2025.03.10) https://pymatgen.org/
#
###############################################################################################
data_MACE-OFF23(L)_c0271a812c12a78
_symmetry_space_group_name_H-M   P2_12_12_1
_cell_length_a   8.03976681
_cell_length_b   13.95178953
_cell_length_c   13.66237385
_cell_angle_alpha   90.00000000
_cell_angle_beta   90.00000000
_cell_angle_gamma   90.00000000
_symmetry_Int_Tables_number   19
_chemical_formula_moiety   'C6 H6 N12 O12'
_chemical_formula_sum   'H24 C24 N48 O48'
_cell_volume   1532.49664924
_cell_formula_units_Z   4
loop_
 _symmetry_equiv_pos_site_id
 _symmetry_equiv_pos_as_xyz
  1  'x, y, z'
  2  '-x, y+1/2, -z+1/2'
  3  'x+1/2, -y+1/2, -z'
  4  '-x+1/2, -y, z+1/2'
loop_
 _atom_site_type_symbol
 _atom_site_label
 _atom_site_symmetry_multiplicity
 _atom_site_fract_x
 _atom_site_fract_y
 _atom_site_fract_z
 _atom_site_occupancy
  H  H0  4  -0.04821894  0.33704390  -0.02536240  1
  H  H1  4  -0.01656488  0.62828291  -0.05222200  1
  H  H2  4  0.00553658  0.53692528  0.28329988  1
  H  H3  4  0.10786247  0.30622336  0.11704551  1
  H  H4  4  0.23219290  -0.08983168  0.96883086  1
  H  H5  4  0.24473289  0.42908007  0.69692613  1
  C  C6  4  -0.16320565  0.54888543  0.05820214  1
  C  C7  4  -0.03003420  0.40158309  0.01712004  1
  C  C8  4  -0.00342995  0.51668540  0.20710155  1
  C  C9  4  0.00026092  0.57213051  0.00146468  1
  C  C10  4  0.07371656  0.38104896  0.11332454  1
  C  C11  4  0.16234104  0.53782119  0.15072272  1
  N  N12  4  -0.18718507  0.44589191  0.04320304  1
  N  N13  4  -0.13562438  0.56964638  0.16079004  1
  N  N14  4  -0.02539488  0.35708610  0.28236788  1
  N  N15  4  -0.02246204  0.41242209  0.19768852  1
  N  N16  4  0.03599244  0.47966150  -0.04276458  1
  N  N17  4  0.13178379  0.59950737  0.06797900  1
  N  N18  4  0.13662415  0.59515121  0.66029864  1
  N  N19  4  0.16616933  0.09082409  0.99356965  1
  N  N20  4  0.17342825  0.46856692  -0.10081344  1
  N  N21  4  0.20126195  0.69002061  0.06329167  1
  N  N22  4  0.21901069  0.44365499  0.11621158  1
  N  N23  4  0.23263217  -0.10435407  0.78272111  1
  O  O24  4  -0.08796005  0.39402065  0.35286163  1
  O  O25  4  0.02932283  0.27617414  0.27633161  1
  O  O26  4  0.03927053  0.53905266  0.69547961  1
  O  O27  4  0.05239268  0.03515893  1.00477225  1
  O  O28  4  0.12056953  0.68067500  0.65410171  1
  O  O29  4  0.12072299  -0.14215325  0.82602555  1
  O  O30  4  0.15920973  0.73898435  -0.00563563  1
  O  O31  4  0.16347647  0.17649012  1.00619224  1
  O  O32  4  0.20115716  0.28830200  0.62680080  1
  O  O33  4  0.21519801  0.38744649  -0.11930092  1
  O  O34  4  0.23689907  0.54174510  -0.13154488  1
  O  O35  4  0.24713943  -0.09622802  0.69474334  1
