###############################################################################################
#
# CIF file generated by modified CIFWriter class 
# in pymatgen (v2025.03.10) https://pymatgen.org/
#
###############################################################################################
data_MACE-OFF23(L)_c1590f58a0f4efb
_symmetry_space_group_name_H-M   P2_1/c
_cell_length_a   9.83045902
_cell_length_b   12.60668039
_cell_length_c   13.31843102
_cell_angle_alpha   90.00000000
_cell_angle_beta   110.91247094
_cell_angle_gamma   90.00000000
_symmetry_Int_Tables_number   14
_chemical_formula_moiety   'C6 H6 N12 O12'
_chemical_formula_sum   'H24 C24 N48 O48'
_cell_volume   1541.81916529
_cell_formula_units_Z   4
loop_
 _symmetry_equiv_pos_site_id
 _symmetry_equiv_pos_as_xyz
  1  'x, y, z'
  2  '-x, -y, -z'
  3  '-x, y+1/2, -z+1/2'
  4  'x, -y+1/2, z+1/2'
loop_
 _atom_site_type_symbol
 _atom_site_label
 _atom_site_symmetry_multiplicity
 _atom_site_fract_x
 _atom_site_fract_y
 _atom_site_fract_z
 _atom_site_occupancy
  H  H0  4  -0.06159235  0.31592565  0.08365197  1
  H  H1  4  0.11273068  0.04482793  0.65346725  1
  H  H2  4  0.22609085  0.28492762  0.87153052  1
  H  H3  4  0.24559061  0.35504803  0.50485544  1
  H  H4  4  0.39325309  0.38307241  0.82492891  1
  H  H5  4  0.41811455  0.21731696  0.57408192  1
  C  C6  4  0.04868619  0.28645435  0.11863179  1
  C  C7  4  0.16259085  0.12243380  0.66416663  1
  C  C8  4  0.21878575  0.26494355  0.79115417  1
  C  C9  4  0.23002580  0.18406868  0.07181559  1
  C  C10  4  0.33291946  0.33167531  0.75923980  1
  C  C11  4  0.34492693  0.22587479  0.61804472  1
  N  N12  4  -0.02607809  0.32476293  0.45653037  1
  N  N13  4  -0.00421063  0.13146057  0.21412437  1
  N  N14  4  0.07082109  0.27596217  0.71588344  1
  N  N15  4  0.08661157  0.23058201  0.03649314  1
  N  N16  4  0.22682076  0.34875796  0.27762345  1
  N  N17  4  0.25604674  0.39091720  0.66083421  1
  N  N18  4  0.26722194  0.44782953  0.03653286  1
  N  N19  4  0.27506431  0.12468374  0.61747873  1
  N  N20  4  0.31649514  0.49052393  0.64846467  1
  N  N21  4  0.34369060  0.09466041  0.84561880  1
  N  N22  4  0.42643076  0.25964751  0.72778256  1
  N  N23  4  0.42858797  0.79590688  0.75043923  1
  O  O24  4  -0.14378424  0.21626728  -0.07274210  1
  O  O25  4  -0.11053544  0.11535690  0.13544728  1
  O  O26  4  0.00883510  0.40517566  0.42220257  1
  O  O27  4  0.04246312  0.42269600  0.79480000  1
  O  O28  4  0.17434291  0.51482493  0.01730100  1
  O  O29  4  0.29184155  -0.01874355  0.05739515  1
  O  O30  4  0.35685030  0.06232306  0.49396864  1
  O  O31  4  0.35844546  0.49447597  0.31939468  1
  O  O32  4  0.36901186  0.76401812  0.80914152  1
  O  O33  4  0.37950080  0.85134213  0.67236723  1
  O  O34  4  0.37990505  -0.03849964  0.23006776  1
  O  O35  4  0.41756167  0.35886114  0.42689887  1
