###############################################################################################
#
# CIF file generated by modified CIFWriter class 
# in pymatgen (v2025.03.10) https://pymatgen.org/
#
###############################################################################################
data_MACE-OFF23(L)_c174bfbddc9a6c4
_symmetry_space_group_name_H-M   Pnc2
_cell_length_a   13.27071030
_cell_length_b   10.66526503
_cell_length_c   13.34846841
_cell_angle_alpha   90.00000000
_cell_angle_beta   90.00000000
_cell_angle_gamma   90.00000000
_symmetry_Int_Tables_number   30
_chemical_formula_moiety   'C6 H6 N12 O12'
_chemical_formula_sum   'H24 C24 N48 O48'
_cell_volume   1889.28405323
_cell_formula_units_Z   4
loop_
 _symmetry_equiv_pos_site_id
 _symmetry_equiv_pos_as_xyz
  1  'x, y, z'
  2  '-x, -y, z'
  3  '-x, y+1/2, z+1/2'
  4  'x, -y+1/2, z+1/2'
loop_
 _atom_site_type_symbol
 _atom_site_label
 _atom_site_symmetry_multiplicity
 _atom_site_fract_x
 _atom_site_fract_y
 _atom_site_fract_z
 _atom_site_occupancy
  H  H0  4  0.09332973  0.57794822  0.65313925  1
  H  H1  4  0.11516690  0.71719649  0.21940919  1
  H  H2  4  0.23800749  0.54207366  0.91620183  1
  H  H3  4  0.39052303  0.57681950  0.56175830  1
  H  H4  4  0.40599320  0.53666368  0.86581436  1
  H  H5  4  0.41253570  0.71813352  0.13024179  1
  C  C6  4  0.16869952  0.59144703  0.68176785  1
  C  C7  4  0.18269141  0.72658828  0.72630327  1
  C  C8  4  0.24538630  0.57824399  0.84106179  1
  C  C9  4  0.34521749  0.59199046  0.62791930  1
  C  C10  4  0.35979142  0.57592366  0.80705944  1
  C  C11  4  0.36005377  0.72577280  0.67299385  1
  N  N12  4  0.10677560  0.43399312  0.80228387  1
  N  N13  4  0.13535617  0.74597579  0.90363097  1
  N  N14  4  0.18711593  0.50748398  0.76780032  1
  N  N15  4  0.20610704  0.70503040  0.83214522  1
  N  N16  4  0.21404201  0.50376394  0.51832245  1
  N  N17  4  0.24033685  0.57505343  0.60258126  1
  N  N18  4  0.25442521  0.58800911  0.14377564  1
  N  N19  4  0.26448710  0.71083421  0.17699017  1
  N  N20  4  0.36668897  0.38467161  0.70547923  1
  N  N21  4  0.37643838  0.51258346  0.71204219  1
  N  N22  4  0.39822939  0.69594467  0.77316204  1
  N  N23  4  0.41530976  0.70908772  0.34137433  1
  O  O24  4  0.05476789  0.38647353  0.73777265  1
  O  O25  4  0.07903115  0.67180198  0.37852839  1
  O  O26  4  0.09763140  0.42055619  0.89129303  1
  O  O27  4  0.13337048  0.45232945  0.52101120  1
  O  O28  4  0.14210628  0.69811018  0.98553734  1
  O  O29  4  0.17720406  0.53526362  0.16517777  1
  O  O30  4  0.27368270  0.50550346  0.45027872  1
  O  O31  4  0.32368966  0.54713378  0.09468056  1
  O  O32  4  0.36351780  0.34169126  0.62175894  1
  O  O33  4  0.36656075  0.32807167  0.78404432  1
  O  O34  4  0.41887433  0.74162643  0.42847366  1
  O  O35  4  0.42823886  0.60619196  0.30729435  1
