###############################################################################################
#
# CIF file generated by modified CIFWriter class 
# in pymatgen (v2025.03.10) https://pymatgen.org/
#
###############################################################################################
data_MACE-OFF23(L)_c2ce6f47ed4d57b
_symmetry_space_group_name_H-M   C2
_cell_length_a   18.90605699
_cell_length_b   14.65998495
_cell_length_c   7.96951134
_cell_angle_alpha   90.00000000
_cell_angle_beta   81.39501560
_cell_angle_gamma   90.00000000
_symmetry_Int_Tables_number   5
_chemical_formula_moiety   'C6 H6 N12 O12'
_chemical_formula_sum   'H24 C24 N48 O48'
_cell_volume   2183.98556618
_cell_formula_units_Z   4
loop_
 _symmetry_equiv_pos_site_id
 _symmetry_equiv_pos_as_xyz
  1  'x, y, z'
  2  '-x, y, -z'
  3  'x+1/2, y+1/2, z'
  4  '-x+1/2, y+1/2, -z'
loop_
 _atom_site_type_symbol
 _atom_site_label
 _atom_site_symmetry_multiplicity
 _atom_site_fract_x
 _atom_site_fract_y
 _atom_site_fract_z
 _atom_site_occupancy
  H  H0  4  0.05636282  0.42969972  0.53392364  1
  H  H1  4  0.06310440  0.57668796  0.65665079  1
  H  H2  4  0.06935782  0.61400347  0.14856175  1
  H  H3  4  0.19112484  0.62061129  0.05093766  1
  H  H4  4  0.22075369  0.08526692  0.52662672  1
  H  H5  4  0.22804625  -0.06144572  0.65425365  1
  C  C6  4  0.09530954  0.47290823  0.45905227  1
  C  C7  4  0.09951020  0.58615284  0.24167216  1
  C  C8  4  0.09969883  0.56940124  0.53985413  1
  C  C9  4  0.18189897  0.58998277  0.17529102  1
  C  C10  4  0.22358519  0.47810245  0.34812131  1
  C  C11  4  0.22836379  0.57414178  0.43062061  1
  N  N12  4  0.06952886  0.42726388  0.17679002  1
  N  N13  4  0.07396953  0.49558506  0.29632450  1
  N  N14  4  0.07992368  0.62839615  0.40647794  1
  N  N15  4  0.08220852  0.72284718  0.41954438  1
  N  N16  4  0.16390835  0.42562336  0.43568225  1
  N  N17  4  0.17229503  0.58127267  0.57450069  1
  N  N18  4  0.17898873  0.37753728  0.57940498  1
  N  N19  4  0.18300393  0.64327283  0.70441819  1
  N  N20  4  0.21111333  0.49800705  0.17611773  1
  N  N21  4  0.21563761  0.18152857  0.78282731  1
  N  N22  4  0.21955158  0.63909775  0.29543630  1
  N  N23  4  0.23490341  -0.02484249  0.95928184  1
  O  O24  4  0.05771700  0.35176140  0.23333918  1
  O  O25  4  0.07533964  0.45261515  0.03115393  1
  O  O26  4  0.07826006  0.75288404  0.56187104  1
  O  O27  4  0.08510814  0.76401276  0.28813442  1
  O  O28  4  0.12988092  0.36678164  0.69244670  1
  O  O29  4  0.13450147  0.64870291  0.82101450  1
  O  O30  4  0.16470390  0.17495653  0.70893050  1
  O  O31  4  0.19001478  -0.07811417  0.92958505  1
  O  O32  4  0.21940969  0.22111482  0.91299801  1
  O  O33  4  0.23969406  0.35033129  0.57392800  1
  O  O34  4  0.23983335  0.68128183  0.68995230  1
  O  O35  4  0.24064183  0.00973799  1.09404547  1
