###############################################################################################
#
# CIF file generated by modified CIFWriter class 
# in pymatgen (v2025.03.10) https://pymatgen.org/
#
###############################################################################################
data_MACE-OFF23(L)_c5609ee9986049b
_symmetry_space_group_name_H-M   P2_1/c
_cell_length_a   16.82349371
_cell_length_b   10.81878207
_cell_length_c   15.99768014
_cell_angle_alpha   90.00000000
_cell_angle_beta   92.39998281
_cell_angle_gamma   90.00000000
_symmetry_Int_Tables_number   14
_chemical_formula_moiety   'C6 H6 N12 O12'
_chemical_formula_sum   'H24 C24 N48 O48'
_cell_volume   2909.17910987
_cell_formula_units_Z   4
loop_
 _symmetry_equiv_pos_site_id
 _symmetry_equiv_pos_as_xyz
  1  'x, y, z'
  2  '-x, -y, -z'
  3  '-x, y+1/2, -z+1/2'
  4  'x, -y+1/2, z+1/2'
loop_
 _atom_site_type_symbol
 _atom_site_label
 _atom_site_symmetry_multiplicity
 _atom_site_fract_x
 _atom_site_fract_y
 _atom_site_fract_z
 _atom_site_occupancy
  H  H0  4  0.33060018  0.93007121  0.44318742  1
  H  H1  4  0.34267988  0.76259958  1.01233085  1
  H  H2  4  0.35719320  0.84071055  0.20310380  1
  H  H3  4  0.37547284  1.00036974  0.81905881  1
  H  H4  4  0.48488070  0.60515383  0.75918770  1
  H  H5  4  0.49709450  0.44389721  0.62068769  1
  C  C6  4  0.35719203  0.63843249  0.90397034  1
  C  C7  4  0.36450057  0.73205510  0.44986834  1
  C  C8  4  0.36900627  0.70043616  0.76387772  1
  C  C9  4  0.37962137  0.59716768  0.33292055  1
  C  C10  4  0.45339097  0.66399263  0.80097158  1
  C  C11  4  0.46372514  0.86544228  0.87072454  1
  N  N12  4  0.24653910  0.86942892  0.88855739  1
  N  N13  4  0.26283094  0.55450326  0.79746247  1
  N  N14  4  0.31301045  0.65317604  0.82429158  1
  N  N15  4  0.32046629  0.88693235  0.69009453  1
  N  N16  4  0.32852949  0.86904952  0.90155732  1
  N  N17  4  0.36494480  0.66694548  0.25688805  1
  N  N18  4  0.43516710  0.89954155  0.37768183  1
  N  N19  4  0.43840045  0.19383414  0.23209166  1
  N  N20  4  0.44657119  0.69090330  0.45061067  1
  N  N21  4  0.46717185  0.48756995  0.89852278  1
  N  N22  4  0.48561784  0.65042221  0.52253596  1
  N  N23  4  0.49879410  0.22659918  0.18045820  1
  O  O24  4  0.20999196  0.69164311  0.43728822  1
  O  O25  4  0.22035494  0.93297432  0.83194173  1
  O  O26  4  0.24014449  1.01266174  0.35150057  1
  O  O27  4  0.24522784  0.94784351  0.22385470  1
  O  O28  4  0.29413024  0.68365979  0.13726662  1
  O  O29  4  0.31492425  0.50255803  0.19051945  1
  O  O30  4  0.41096399  0.09022890  0.22339857  1
  O  O31  4  0.41636704  0.27130333  0.28009401  1
  O  O32  4  0.43591686  1.06989697  0.45325126  1
  O  O33  4  0.44961972  0.39672598  0.48549479  1
  O  O34  4  0.45393796  0.66909485  0.58785133  1
  O  O35  4  0.47471914  -0.04393484  0.63834823  1
