###############################################################################################
#
# CIF file generated by modified CIFWriter class 
# in pymatgen (v2025.03.10) https://pymatgen.org/
#
###############################################################################################
data_MACE-OFF23(L)_c817fe610f1ed2f
_symmetry_space_group_name_H-M   P2_1/c
_cell_length_a   11.77266415
_cell_length_b   8.55916801
_cell_length_c   15.25745698
_cell_angle_alpha   90.00000000
_cell_angle_beta   85.26128804
_cell_angle_gamma   90.00000000
_symmetry_Int_Tables_number   14
_chemical_formula_moiety   'C6 H6 N12 O12'
_chemical_formula_sum   'H24 C24 N48 O48'
_cell_volume   1532.15044150
_cell_formula_units_Z   4
loop_
 _symmetry_equiv_pos_site_id
 _symmetry_equiv_pos_as_xyz
  1  'x, y, z'
  2  '-x, -y, -z'
  3  '-x, y+1/2, -z+1/2'
  4  'x, -y+1/2, z+1/2'
loop_
 _atom_site_type_symbol
 _atom_site_label
 _atom_site_symmetry_multiplicity
 _atom_site_fract_x
 _atom_site_fract_y
 _atom_site_fract_z
 _atom_site_occupancy
  H  H0  4  0.02042915  0.75190598  0.46012789  1
  H  H1  4  0.12618008  0.97055835  -0.01914473  1
  H  H2  4  0.17083664  1.08044789  0.60626426  1
  H  H3  4  0.25666820  0.40003749  -0.04158944  1
  H  H4  4  0.35431875  0.68010351  0.64422676  1
  H  H5  4  0.44147343  0.80061300  -0.00006633  1
  C  C6  4  0.10032568  0.78238383  0.48570268  1
  C  C7  4  0.17207141  0.63104255  0.50077319  1
  C  C8  4  0.18746135  0.96722718  0.57631139  1
  C  C9  4  0.24504984  0.51989090  -0.01999078  1
  C  C10  4  0.29683518  0.72792637  0.59946868  1
  C  C11  4  0.35467815  0.74155208  0.50384460  1
  N  N12  4  0.00581167  0.65485849  0.13123948  1
  N  N13  4  0.08310694  0.61665656  0.06181518  1
  N  N14  4  0.16223079  0.60265312  -0.06963305  1
  N  N15  4  0.18142261  0.62788030  -0.15865231  1
  N  N16  4  0.19903617  0.87871297  0.09294458  1
  N  N17  4  0.22463142  0.46096560  0.61356717  1
  N  N18  4  0.25765138  0.62234651  0.13077019  1
  N  N19  4  0.28415498  0.64198055  0.45140215  1
  N  N20  4  0.29250445  0.55978815  0.20821574  1
  N  N21  4  0.33494190  1.00465834  -0.07308978  1
  N  N22  4  0.35417845  0.90201917  0.47619624  1
  N  N23  4  0.44449209  0.95909313  0.42065106  1
  O  O24  4  -0.06200077  0.74403627  0.61658197  1
  O  O25  4  0.00991103  0.57903098  0.19753714  1
  O  O26  4  0.12408753  0.72844867  -0.18924865  1
  O  O27  4  0.14558111  0.37225106  0.61019508  1
  O  O28  4  0.25075933  0.54377081  -0.19792047  1
  O  O29  4  0.25558305  0.43268120  0.22874753  1
  O  O30  4  0.27047487  0.38732602  0.42079712  1
  O  O31  4  0.31969522  1.06944139  0.13108010  1
  O  O32  4  0.35635412  0.86145289  0.74809243  1
  O  O33  4  0.43691003  0.49604258  0.41219734  1
  O  O34  4  0.44061335  1.09558569  0.40109186  1
  O  O35  4  0.47810364  0.12990641  0.59957452  1
