###############################################################################################
#
# CIF file generated by modified CIFWriter class 
# in pymatgen (v2025.03.10) https://pymatgen.org/
#
###############################################################################################
data_MACE-OFF23(L)_ca35756e2934bf1
_symmetry_space_group_name_H-M   C2
_cell_length_a   12.68043525
_cell_length_b   10.17802292
_cell_length_c   12.85344610
_cell_angle_alpha   90.00000000
_cell_angle_beta   96.09985340
_cell_angle_gamma   90.00000000
_symmetry_Int_Tables_number   5
_chemical_formula_moiety   'C6 H6 N12 O12'
_chemical_formula_sum   'H24 C24 N48 O48'
_cell_volume   1649.49611490
_cell_formula_units_Z   4
loop_
 _symmetry_equiv_pos_site_id
 _symmetry_equiv_pos_as_xyz
  1  'x, y, z'
  2  '-x, y, -z'
  3  'x+1/2, y+1/2, z'
  4  '-x+1/2, y+1/2, -z'
loop_
 _atom_site_type_symbol
 _atom_site_label
 _atom_site_symmetry_multiplicity
 _atom_site_fract_x
 _atom_site_fract_y
 _atom_site_fract_z
 _atom_site_occupancy
  H  H0  4  0.08644149  0.81833579  0.60402350  1
  H  H1  4  0.10078307  0.23257644  0.12482411  1
  H  H2  4  0.12842670  0.44832480  0.71226248  1
  H  H3  4  0.15470628  0.94756364  0.74730849  1
  H  H4  4  0.21922697  -0.00064977  0.37508166  1
  H  H5  4  0.24916113  0.67506600  0.96466036  1
  C  C6  4  0.13665598  0.76062054  0.65975256  1
  C  C7  4  0.15909866  0.54577310  0.73013194  1
  C  C8  4  0.17149010  0.21683898  0.17830628  1
  C  C9  4  0.18252944  0.84735661  0.75581198  1
  C  C10  4  0.22977245  0.68118744  0.88064723  1
  C  C11  4  0.24145635  0.07914974  0.32633193  1
  N  N12  4  -0.00866681  0.60565881  0.62656371  1
  N  N13  4  0.05037458  0.09250953  0.27751272  1
  N  N14  4  0.08000241  0.64621810  0.69421084  1
  N  N15  4  0.11463639  0.86118750  0.92890423  1
  N  N16  4  0.14396255  0.45390175  0.20671201  1
  N  N17  4  0.15382694  0.10841166  0.24726623  1
  N  N18  4  0.15653348  0.78805563  0.85243749  1
  N  N19  4  0.17856081  0.45164905  0.90647778  1
  N  N20  4  0.18423364  0.55828783  0.84182022  1
  N  N21  4  0.20190826  0.33893077  0.23429493  1
  N  N22  4  0.21866491  0.69151280  0.61079530  1
  N  N23  4  0.21875203  0.25543876  0.45397516  1
  O  O24  4  -0.06512000  0.69263362  0.58892895  1
  O  O25  4  -0.02271673  0.48902834  0.61498312  1
  O  O26  4  -0.01462746  0.17309352  0.24636663  1
  O  O27  4  0.03722748  -0.00482703  0.32820431  1
  O  O28  4  0.05482867  0.43868736  0.16537935  1
  O  O29  4  0.07689193  0.96632889  0.90235736  1
  O  O30  4  0.11799609  0.81115879  1.01460878  1
  O  O31  4  0.14096030  0.19698006  0.47491590  1
  O  O32  4  0.16125040  0.34585765  0.86657394  1
  O  O33  4  0.18701037  0.55611822  0.23202053  1
  O  O34  4  0.19144064  0.47384374  1.00020565  1
  O  O35  4  0.24970622  0.36239918  0.48534021  1
