###############################################################################################
#
# CIF file generated by modified CIFWriter class 
# in pymatgen (v2025.03.10) https://pymatgen.org/
#
###############################################################################################
data_MACE-OFF23(L)_cfdab422f36de49
_symmetry_space_group_name_H-M   P2_1
_cell_length_a   18.37075767
_cell_length_b   10.69689113
_cell_length_c   8.80439016
_cell_angle_alpha   90.00000000
_cell_angle_beta   90.00000000
_cell_angle_gamma   89.71151014
_symmetry_Int_Tables_number   4
_chemical_formula_moiety   'C6 H6 N12 O12'
_chemical_formula_sum   'H24 C24 N48 O48'
_cell_volume   1730.12873394
_cell_formula_units_Z   4
loop_
 _symmetry_equiv_pos_site_id
 _symmetry_equiv_pos_as_xyz
  1  'x, y, z'
  2  '-x, -y, z+1/2'
  3  'x+1/2, y+1/2, z'
  4  '-x+1/2, -y+1/2, z+1/2'
loop_
 _atom_site_type_symbol
 _atom_site_label
 _atom_site_symmetry_multiplicity
 _atom_site_fract_x
 _atom_site_fract_y
 _atom_site_fract_z
 _atom_site_occupancy
  H  H0  4  -0.03158747  0.27940673  0.94493200  1
  H  H1  4  -0.00339111  0.52284785  0.59449676  1
  H  H2  4  0.01665919  0.04993076  0.58119247  1
  H  H3  4  0.02211924  0.39173627  0.39051546  1
  H  H4  4  0.09446983  0.34529406  0.95062380  1
  H  H5  4  0.14072696  0.11835420  0.58507331  1
  C  C6  4  -0.00666604  0.28351299  0.83375065  1
  C  C7  4  0.01306728  0.43163345  0.63459261  1
  C  C8  4  0.02138479  0.14618454  0.61617345  1
  C  C9  4  0.03082942  0.34276372  0.49596533  1
  C  C10  4  0.07457895  0.32704446  0.83716625  1
  C  C11  4  0.10257774  0.19109446  0.61810844  1
  N  N12  4  -0.11089564  0.36222788  0.68453854  1
  N  N13  4  -0.05567826  0.07073028  0.82322724  1
  N  N14  4  -0.04690857  0.18261803  0.37945245  1
  N  N15  4  -0.04065668  0.38062493  0.73912429  1
  N  N16  4  -0.01364192  0.23086195  0.50766342  1
  N  N17  4  -0.00879050  0.16005802  0.76638062  1
  N  N18  4  0.07064256  0.44125419  0.74668901  1
  N  N19  4  0.10434918  0.29434966  0.50971866  1
  N  N20  4  0.12237983  0.23596403  0.76667442  1
  N  N21  4  0.13523698  0.49996712  0.70429716  1
  N  N22  4  0.14445372  0.27815644  0.37367886  1
  N  N23  4  0.16576276  0.15983876  0.85923451  1
  O  O24  4  -0.14824870  0.29069295  0.75544601  1
  O  O25  4  -0.12711391  0.42237042  0.57328489  1
  O  O26  4  -0.08045372  0.08962684  0.94846793  1
  O  O27  4  -0.07182167  0.07839948  0.39209806  1
  O  O28  4  -0.06569499  -0.02188976  0.74706173  1
  O  O29  4  -0.05087699  0.25038334  0.27032627  1
  O  O30  4  0.12616740  0.34447932  0.26958640  1
  O  O31  4  0.13110387  0.56390303  0.59115113  1
  O  O32  4  0.16451129  0.18265642  0.99317755  1
  O  O33  4  0.18636839  0.48374912  0.78673809  1
  O  O34  4  0.19389876  0.20451359  0.37784455  1
  O  O35  4  0.20118283  0.08033073  0.79567094  1
