###############################################################################################
#
# CIF file generated by modified CIFWriter class 
# in pymatgen (v2025.03.10) https://pymatgen.org/
#
###############################################################################################
data_MACE-OFF23(L)_cffa3ed20eb9f2d
_symmetry_space_group_name_H-M   P2_1/c
_cell_length_a   14.39443823
_cell_length_b   7.87415979
_cell_length_c   13.58402703
_cell_angle_alpha   90.00000000
_cell_angle_beta   91.90706472
_cell_angle_gamma   90.00000000
_symmetry_Int_Tables_number   14
_chemical_formula_moiety   'C6 H6 N12 O12'
_chemical_formula_sum   'H24 C24 N48 O48'
_cell_volume   1538.81661632
_cell_formula_units_Z   4
loop_
 _symmetry_equiv_pos_site_id
 _symmetry_equiv_pos_as_xyz
  1  'x, y, z'
  2  '-x, -y, -z'
  3  '-x, y+1/2, -z+1/2'
  4  'x, -y+1/2, z+1/2'
loop_
 _atom_site_type_symbol
 _atom_site_label
 _atom_site_symmetry_multiplicity
 _atom_site_fract_x
 _atom_site_fract_y
 _atom_site_fract_z
 _atom_site_occupancy
  H  H0  4  0.07377881  0.60923489  0.76495859  1
  H  H1  4  0.19151949  0.74608781  0.67586052  1
  H  H2  4  0.24687445  0.24050109  0.67709757  1
  H  H3  4  0.25665691  0.56225110  1.00537840  1
  H  H4  4  0.35372975  1.28852037  0.31422117  1
  H  H5  4  0.37670015  0.68948094  0.91443695  1
  C  C6  4  0.14220211  0.93804751  0.28492235  1
  C  C7  4  0.21970422  0.84929367  0.22545522  1
  C  C8  4  0.24543394  1.15087354  0.22536317  1
  C  C9  4  0.25104163  0.53121631  0.92794377  1
  C  C10  4  0.31566766  0.32955040  0.81679238  1
  C  C11  4  0.32910187  0.88342211  0.36792760  1
  N  N12  4  0.08767998  0.26692929  0.77766975  1
  N  N13  4  0.10859549  0.69846398  0.94175366  1
  N  N14  4  0.15238834  0.38620409  0.75641056  1
  N  N15  4  0.15909590  0.92131184  0.39031785  1
  N  N16  4  0.21644537  0.22980376  0.95132026  1
  N  N17  4  0.25815222  0.99295532  0.17280303  1
  N  N18  4  0.27023579  0.35304913  0.91040089  1
  N  N19  4  0.28554905  0.77243515  0.29545826  1
  N  N20  4  0.32434734  0.97803561  0.10337711  1
  N  N21  4  0.33084202  0.87696740  0.76995532  1
  N  N22  4  0.37831377  0.47498092  0.82099079  1
  N  N23  4  0.47029777  1.05647473  0.35634325  1
  O  O24  4  0.01947367  0.31889876  0.81869372  1
  O  O25  4  0.04489752  0.76664965  0.89729949  1
  O  O26  4  0.10362944  0.12209724  0.75376391  1
  O  O27  4  0.13169783  0.78007740  0.52701273  1
  O  O28  4  0.16648266  1.22399363  0.51619789  1
  O  O29  4  0.22498530  0.08625465  0.92070029  1
  O  O30  4  0.29760150  0.95422123  0.70040762  1
  O  O31  4  0.33232214  0.66017635  0.56596139  1
  O  O32  4  0.36668369  1.10658839  0.08522684  1
  O  O33  4  0.39681415  0.58048294  0.32139691  1
  O  O34  4  0.48777019  0.43503812  0.11137430  1
  O  O35  4  0.49878069  0.30078003  0.84651296  1
