###############################################################################################
#
# CIF file generated by modified CIFWriter class 
# in pymatgen (v2025.03.10) https://pymatgen.org/
#
###############################################################################################
data_MACE-OFF23(L)_d342669ddab7c3d
_symmetry_space_group_name_H-M   P2_1/c
_cell_length_a   13.76217076
_cell_length_b   7.98261200
_cell_length_c   15.15859966
_cell_angle_alpha   90.00000000
_cell_angle_beta   101.46289084
_cell_angle_gamma   90.00000000
_symmetry_Int_Tables_number   14
_chemical_formula_moiety   'C6 H6 N12 O12'
_chemical_formula_sum   'H24 C24 N48 O48'
_cell_volume   1632.07790589
_cell_formula_units_Z   4
loop_
 _symmetry_equiv_pos_site_id
 _symmetry_equiv_pos_as_xyz
  1  'x, y, z'
  2  '-x, -y, -z'
  3  '-x, y+1/2, -z+1/2'
  4  'x, -y+1/2, z+1/2'
loop_
 _atom_site_type_symbol
 _atom_site_label
 _atom_site_symmetry_multiplicity
 _atom_site_fract_x
 _atom_site_fract_y
 _atom_site_fract_z
 _atom_site_occupancy
  H  H0  4  0.12357395  0.80962082  -0.05715242  1
  H  H1  4  0.13618242  0.98213650  0.41579522  1
  H  H2  4  0.15519146  0.57735032  0.18205782  1
  H  H3  4  0.32961791  0.58462681  0.23716760  1
  H  H4  4  0.42794747  0.66798336  0.53835110  1
  H  H5  4  0.43999727  0.95523251  0.51272705  1
  C  C6  4  0.18270426  0.75141125  -0.00941642  1
  C  C7  4  0.19065240  0.55911703  -0.02678442  1
  C  C8  4  0.19504545  0.60131765  0.12866677  1
  C  C9  4  0.31081346  0.60888600  0.16559384  1
  C  C10  4  0.36242897  0.76534700  0.04774605  1
  C  C11  4  0.37013095  0.57405627  0.03043595  1
  N  N12  4  0.08473803  1.11294729  0.55044368  1
  N  N13  4  0.11602561  0.61647947  0.61364350  1
  N  N14  4  0.16308553  0.74626873  0.58020501  1
  N  N15  4  0.17244427  1.02157390  0.55620307  1
  N  N16  4  0.27557327  0.83867780  -0.01029127  1
  N  N17  4  0.28868505  0.90021288  -0.09337347  1
  N  N18  4  0.28953886  0.52547603  -0.04197441  1
  N  N19  4  0.30296913  0.37180530  -0.08483304  1
  N  N20  4  0.34076563  0.58545287  0.68366273  1
  N  N21  4  0.35317064  0.76587235  0.14120927  1
  N  N22  4  0.36138847  1.00653267  0.61573871  1
  N  N23  4  0.44210151  1.09838879  0.66205720  1
  O  O24  4  0.04817431  0.33111684  -0.02289183  1
  O  O25  4  0.05458914  0.36774811  0.11905567  1
  O  O26  4  0.09590727  0.63748821  0.68677333  1
  O  O27  4  0.10150904  0.49310864  0.56637584  1
  O  O28  4  0.21451410  0.91386036  -0.15121910  1
  O  O29  4  0.22897507  1.19934556  0.37816599  1
  O  O30  4  0.31265963  0.59693186  0.75439081  1
  O  O31  4  0.36070977  0.45922328  0.64733418  1
  O  O32  4  0.37189246  0.93948452  -0.09919123  1
  O  O33  4  0.38754183  0.32879098  -0.08155185  1
  O  O34  4  0.44866511  0.38555317  0.24209722  1
  O  O35  4  0.49522198  0.34017437  0.11620739  1
