###############################################################################################
#
# CIF file generated by modified CIFWriter class 
# in pymatgen (v2025.03.10) https://pymatgen.org/
#
###############################################################################################
data_MACE-OFF23(L)_d5ba0f448d6c303
_symmetry_space_group_name_H-M   P2_1/c
_cell_length_a   12.98243900
_cell_length_b   8.97803071
_cell_length_c   14.88835936
_cell_angle_alpha   90.00000000
_cell_angle_beta   100.86279665
_cell_angle_gamma   90.00000000
_symmetry_Int_Tables_number   14
_chemical_formula_moiety   'C6 H6 N12 O12'
_chemical_formula_sum   'H24 C24 N48 O48'
_cell_volume   1704.24354300
_cell_formula_units_Z   4
loop_
 _symmetry_equiv_pos_site_id
 _symmetry_equiv_pos_as_xyz
  1  'x, y, z'
  2  '-x, -y, -z'
  3  '-x, y+1/2, -z+1/2'
  4  'x, -y+1/2, z+1/2'
loop_
 _atom_site_type_symbol
 _atom_site_label
 _atom_site_symmetry_multiplicity
 _atom_site_fract_x
 _atom_site_fract_y
 _atom_site_fract_z
 _atom_site_occupancy
  H  H0  4  0.04768677  1.03179742  0.83154469  1
  H  H1  4  0.13484665  0.94617178  0.97777161  1
  H  H2  4  0.23850294  0.61558645  0.16335122  1
  H  H3  4  0.29029218  0.36614100  0.20561076  1
  H  H4  4  0.38697323  0.76286880  0.41892815  1
  H  H5  4  0.43746787  0.98085290  0.96029800  1
  C  C6  4  0.12831642  0.49809182  0.33150285  1
  C  C7  4  0.18632709  0.94562134  0.92861519  1
  C  C8  4  0.24129071  0.90470486  0.73513884  1
  C  C9  4  0.27576783  0.43183800  0.26285176  1
  C  C10  4  0.32938134  0.68267865  0.38688836  1
  C  C11  4  0.36330168  0.51945231  0.41408455  1
  N  N12  4  0.08538458  0.76426560  0.75652457  1
  N  N13  4  0.13602263  0.89894677  0.75774976  1
  N  N14  4  0.18114774  1.26254076  0.83211355  1
  N  N15  4  0.18425465  0.37788525  0.29693328  1
  N  N16  4  0.22334663  0.69153569  0.98604324  1
  N  N17  4  0.23046469  0.70162421  0.41928910  1
  N  N18  4  0.27942685  1.03623882  0.95787060  1
  N  N19  4  0.30003170  0.39728439  0.54372123  1
  N  N20  4  0.31391519  0.80234276  0.78877128  1
  N  N21  4  0.34362552  0.67168350  0.75013982  1
  N  N22  4  0.37129674  1.06203606  0.83186426  1
  N  N23  4  0.44289004  0.31991964  0.33787650  1
  O  O24  4  0.01736709  0.74315896  0.30211522  1
  O  O25  4  0.11145608  0.83236043  0.20877620  1
  O  O26  4  0.11407998  1.28558283  0.87714242  1
  O  O27  4  0.14748371  0.70109162  1.02170764  1
  O  O28  4  0.22510774  1.12427614  1.07891380  1
  O  O29  4  0.24481344  0.14961101  0.31381877  1
  O  O30  4  0.29060920  0.59702616  0.99868045  1
  O  O31  4  0.32357526  0.83564535  0.16742164  1
  O  O32  4  0.38904461  0.58061305  0.80208619  1
  O  O33  4  0.38997298  0.36085383  0.57180141  1
  O  O34  4  0.44605816  1.24653163  0.76844127  1
  O  O35  4  0.49772188  1.20072361  0.91218026  1
