###############################################################################################
#
# CIF file generated by modified CIFWriter class 
# in pymatgen (v2025.03.10) https://pymatgen.org/
#
###############################################################################################
data_MACE-OFF23(L)_d69b6649dd4a78f
_symmetry_space_group_name_H-M   P2_12_12_1
_cell_length_a   14.57239817
_cell_length_b   9.78116557
_cell_length_c   12.67274573
_cell_angle_alpha   90.00000000
_cell_angle_beta   90.00000000
_cell_angle_gamma   90.00000000
_symmetry_Int_Tables_number   19
_chemical_formula_moiety   'C6 H6 N12 O12'
_chemical_formula_sum   'H24 C24 N48 O48'
_cell_volume   1806.31031133
_cell_formula_units_Z   4
loop_
 _symmetry_equiv_pos_site_id
 _symmetry_equiv_pos_as_xyz
  1  'x, y, z'
  2  'x+1/2, -y+1/2, -z'
  3  '-x, y+1/2, -z+1/2'
  4  '-x+1/2, -y, z+1/2'
loop_
 _atom_site_type_symbol
 _atom_site_label
 _atom_site_symmetry_multiplicity
 _atom_site_fract_x
 _atom_site_fract_y
 _atom_site_fract_z
 _atom_site_occupancy
  H  H0  4  0.02930068  0.27323668  0.24631699  1
  H  H1  4  0.10114229  -0.02960658  0.46016855  1
  H  H2  4  0.16508582  0.48536973  0.46929781  1
  H  H3  4  0.18512484  0.29277099  0.19080984  1
  H  H4  4  0.20547715  0.30910382  0.59144758  1
  H  H5  4  0.24231131  1.01486255  0.89885124  1
  C  C6  4  0.07684478  0.25288075  0.30978373  1
  C  C7  4  0.12066514  0.07212246  0.43522339  1
  C  C8  4  0.16113261  0.38498444  0.43409185  1
  C  C9  4  0.17934570  0.26602824  0.27347879  1
  C  C10  4  0.18829751  0.26826468  0.51482919  1
  C  C11  4  0.22236313  0.08233842  0.39730399  1
  N  N12  4  -0.02048326  0.05037703  0.33157422  1
  N  N13  4  -0.00062367  0.44641635  0.39904950  1
  N  N14  4  0.06246563  0.11509249  0.34832647  1
  N  N15  4  0.07037269  0.35515044  0.39282061  1
  N  N16  4  0.07563617  0.13486214  0.61838834  1
  N  N17  4  0.11481773  0.16935194  0.52176284  1
  N  N18  4  0.15126036  0.78083871  0.96643281  1
  N  N19  4  0.21785133  0.37348503  0.33999700  1
  N  N20  4  0.22856633  0.13968164  0.29176279  1
  N  N21  4  0.24052386  0.82272565  0.97446866  1
  N  N22  4  0.24547739  0.05279786  0.20698181  1
  N  N23  4  0.24954819  0.49393047  0.29135396  1
  O  O24  4  -0.07156795  0.10020851  0.26665936  1
  O  O25  4  -0.06838827  0.41886363  0.34645927  1
  O  O26  4  -0.03332608  -0.05532374  0.37868245  1
  O  O27  4  0.00889700  0.54280249  0.45693214  1
  O  O28  4  0.04005214  0.02325894  0.62247954  1
  O  O29  4  0.07842639  0.22171824  0.68541211  1
  O  O30  4  0.10037538  0.85087972  0.91398812  1
  O  O31  4  0.13021621  0.67925720  1.01585059  1
  O  O32  4  0.22863501  0.51664734  0.69958081  1
  O  O33  4  0.23927795  1.06558579  0.72736648  1
  O  O34  4  0.24453552  0.40711719  0.84694285  1
  O  O35  4  0.24496207  0.10408455  0.11997538  1
