###############################################################################################
#
# CIF file generated by modified CIFWriter class 
# in pymatgen (v2025.03.10) https://pymatgen.org/
#
###############################################################################################
data_MACE-OFF23(L)_d7ee4f02a9d5d6b
_symmetry_space_group_name_H-M   Pna2_1
_cell_length_a   10.35926590
_cell_length_b   12.26789978
_cell_length_c   12.56590151
_cell_angle_alpha   90.00000000
_cell_angle_beta   90.00000000
_cell_angle_gamma   90.00000000
_symmetry_Int_Tables_number   33
_chemical_formula_moiety   'C6 H6 N12 O12'
_chemical_formula_sum   'H24 C24 N48 O48'
_cell_volume   1596.95563580
_cell_formula_units_Z   4
loop_
 _symmetry_equiv_pos_site_id
 _symmetry_equiv_pos_as_xyz
  1  'x, y, z'
  2  '-x, -y, z+1/2'
  3  '-x+1/2, y+1/2, z+1/2'
  4  'x+1/2, -y+1/2, z'
loop_
 _atom_site_type_symbol
 _atom_site_label
 _atom_site_symmetry_multiplicity
 _atom_site_fract_x
 _atom_site_fract_y
 _atom_site_fract_z
 _atom_site_occupancy
  H  H0  4  -0.00833730  -0.12413145  0.85227909  1
  H  H1  4  0.04583510  0.48531586  0.45461887  1
  H  H2  4  0.08473810  -0.09905739  1.02061349  1
  H  H3  4  0.16574868  0.65153607  0.47201435  1
  H  H4  4  0.17363311  0.10009946  0.67414808  1
  H  H5  4  0.20822882  0.43289755  0.15828328  1
  C  C6  4  0.08040509  -0.07859616  0.84588891  1
  C  C7  4  0.13879226  0.48161918  0.41580064  1
  C  C8  4  0.14204878  -0.06128633  0.95941305  1
  C  C9  4  0.18723192  0.06022492  0.75008386  1
  C  C10  4  0.21674307  0.59064807  0.42626691  1
  C  C11  4  0.23576429  0.45047173  0.23954652  1
  N  N12  4  -0.04816737  0.04520890  0.73351115  1
  N  N13  4  0.00482274  0.48058502  0.25587906  1
  N  N14  4  0.06244846  0.02764035  0.79569021  1
  N  N15  4  0.06711441  0.12141990  1.00624919  1
  N  N16  4  0.12082908  0.45137985  0.30477118  1
  N  N17  4  0.13268449  -0.21334745  0.70795987  1
  N  N18  4  0.16677791  0.05315381  0.98136569  1
  N  N19  4  0.17467586  -0.13211007  0.77863643  1
  N  N20  4  0.19130462  0.29715754  0.47725088  1
  N  N21  4  0.22447661  0.40482045  0.46754717  1
  N  N22  4  0.23988971  0.63157258  0.31929869  1
  N  N23  4  0.24792660  0.24497849  0.80523233  1
  O  O24  4  -0.13445249  -0.01953579  0.74179532  1
  O  O25  4  -0.08674817  0.49135109  0.31385051  1
  O  O26  4  -0.04608866  0.12748019  0.68020720  1
  O  O27  4  -0.02912057  0.07796305  1.04256715  1
  O  O28  4  0.00709093  0.49004671  0.15986375  1
  O  O29  4  0.02573678  -0.24911068  0.72268796  1
  O  O30  4  0.07739470  0.27663352  0.47065057  1
  O  O31  4  0.08371687  0.21753390  0.99203467  1
  O  O32  4  0.18388072  0.27480936  0.73059713  1
  O  O33  4  0.19278187  0.80123532  0.36690896  1
  O  O34  4  0.21024547  -0.24192280  0.64235585  1
  O  O35  4  0.22115464  -0.26594428  0.99441341  1
