###############################################################################################
#
# CIF file generated by modified CIFWriter class 
# in pymatgen (v2025.03.10) https://pymatgen.org/
#
###############################################################################################
data_MACE-OFF23(L)_dbbe8c22676bd07
_symmetry_space_group_name_H-M   Pca2_1
_cell_length_a   12.37910266
_cell_length_b   10.65589702
_cell_length_c   11.60120414
_cell_angle_alpha   90.00000000
_cell_angle_beta   90.00000000
_cell_angle_gamma   90.00000000
_symmetry_Int_Tables_number   29
_chemical_formula_moiety   'C6 H6 N12 O12'
_chemical_formula_sum   'H24 C24 N48 O48'
_cell_volume   1530.31997966
_cell_formula_units_Z   4
loop_
 _symmetry_equiv_pos_site_id
 _symmetry_equiv_pos_as_xyz
  1  'x, y, z'
  2  '-x, -y, z+1/2'
  3  '-x+1/2, y, z+1/2'
  4  'x+1/2, -y, z'
loop_
 _atom_site_type_symbol
 _atom_site_label
 _atom_site_symmetry_multiplicity
 _atom_site_fract_x
 _atom_site_fract_y
 _atom_site_fract_z
 _atom_site_occupancy
  H  H0  4  -0.19930663  0.69265094  0.06967566  1
  H  H1  4  -0.11381209  0.84214895  -0.05118947  1
  H  H2  4  -0.02227947  0.82114479  0.34807415  1
  H  H3  4  0.06581971  0.97125115  0.22743759  1
  H  H4  4  0.10405913  0.56205724  0.00369957  1
  H  H5  4  0.20381687  0.63713889  0.16439186  1
  C  C6  4  -0.11660826  0.70999434  0.09507533  1
  C  C7  4  -0.06060215  0.80870588  0.01591948  1
  C  C8  4  -0.01118526  0.78744748  0.26108965  1
  C  C9  4  0.04600648  0.88597798  0.18163792  1
  C  C10  4  0.06176296  0.63676448  0.04774102  1
  C  C11  4  0.12859405  0.68714029  0.15447643  1
  N  N12  4  -0.20893228  0.76219917  0.27637952  1
  N  N13  4  -0.11463075  0.75269078  0.21300731  1
  N  N14  4  -0.05987145  0.49853716  0.15177665  1
  N  N15  4  -0.04761623  0.59931080  0.07778791  1
  N  N16  4  -0.02597666  0.91383643  0.08664553  1
  N  N17  4  -0.02215420  1.03278716  0.03655246  1
  N  N18  4  0.02939314  0.73554785  -0.03190319  1
  N  N19  4  0.06280944  0.68146692  0.25736422  1
  N  N20  4  0.09379657  0.61580748  0.35406872  1
  N  N21  4  0.10664989  0.79698160  -0.09577320  1
  N  N22  4  0.14396361  0.82165568  0.14177263  1
  N  N23  4  0.24576598  0.87210210  0.16150294  1
  O  O24  4  -0.19852345  0.79325674  0.37663559  1
  O  O25  4  -0.14891440  0.48607971  0.19348965  1
  O  O26  4  -0.08615198  1.05166746  -0.04120410  1
  O  O27  4  0.01828404  0.43302644  0.16666194  1
  O  O28  4  0.04103426  0.63572294  0.44017303  1
  O  O29  4  0.04124455  1.10649893  0.07589570  1
  O  O30  4  0.07923003  0.89470670  -0.14029483  1
  O  O31  4  0.16675502  0.54211855  0.34285055  1
  O  O32  4  0.17870876  0.80284171  0.64568115  1
  O  O33  4  0.19406564  0.74662755  -0.10352146  1
  O  O34  4  0.20763325  0.26122414  0.22770537  1
  O  O35  4  0.24894142  0.98230448  0.18683129  1
