###############################################################################################
#
# CIF file generated by modified CIFWriter class 
# in pymatgen (v2025.03.10) https://pymatgen.org/
#
###############################################################################################
data_MACE-OFF23(L)_dbcf33fd925d01b
_symmetry_space_group_name_H-M   Cc
_cell_length_a   8.52956626
_cell_length_b   15.04817118
_cell_length_c   13.12502704
_cell_angle_alpha   90.00000000
_cell_angle_beta   98.99089887
_cell_angle_gamma   90.00000000
_symmetry_Int_Tables_number   9
_chemical_formula_moiety   'C6 H6 N12 O12'
_chemical_formula_sum   'H24 C24 N48 O48'
_cell_volume   1663.95556556
_cell_formula_units_Z   4
loop_
 _symmetry_equiv_pos_site_id
 _symmetry_equiv_pos_as_xyz
  1  'x, y, z'
  2  'x, -y, z+1/2'
  3  'x+1/2, y+1/2, z'
  4  'x+1/2, -y+1/2, z+1/2'
loop_
 _atom_site_type_symbol
 _atom_site_label
 _atom_site_symmetry_multiplicity
 _atom_site_fract_x
 _atom_site_fract_y
 _atom_site_fract_z
 _atom_site_occupancy
  H  H0  4  0.03664980  0.47399643  0.46907181  1
  H  H1  4  0.22640801  0.22911854  0.49827438  1
  H  H2  4  0.27107305  0.47776513  0.39681721  1
  H  H3  4  0.29952864  0.48379209  0.76085448  1
  H  H4  4  0.37801469  0.23335286  0.66234543  1
  H  H5  4  0.53549227  0.48940714  0.68914964  1
  C  C6  4  0.13300915  0.43991754  0.51680757  1
  C  C7  4  0.24611780  0.29715971  0.52343113  1
  C  C8  4  0.28833628  0.44573502  0.69088957  1
  C  C9  4  0.29040822  0.55688965  -0.03055564  1
  C  C10  4  0.34780048  0.29988974  0.63509423  1
  C  C11  4  0.44482125  0.54983720  0.14282633  1
  N  N12  4  -0.03478732  0.31299417  0.45209597  1
  N  N13  4  0.04982538  0.53959424  0.64673385  1
  N  N14  4  0.09673218  0.34484872  0.52324278  1
  N  N15  4  0.15136968  0.31759045  0.75247783  1
  N  N16  4  0.15811888  0.47952618  0.61779603  1
  N  N17  4  0.27505002  0.35092753  0.70899725  1
  N  N18  4  0.32019245  0.68012102  -0.14877536  1
  N  N19  4  0.32891873  0.34902102  0.45439537  1
  N  N20  4  0.40880010  0.51115158  0.04054178  1
  N  N21  4  0.48761539  0.64379043  0.14160188  1
  N  N22  4  0.52718634  0.53715334  0.50158112  1
  N  N23  4  0.62131887  0.32846276  0.60491092  1
  O  O24  4  -0.12652322  0.36779868  0.41161680  1
  O  O25  4  -0.05068129  0.56684308  0.57941926  1
  O  O26  4  -0.04413251  0.76649444  -0.05735737  1
  O  O27  4  0.06701789  0.56034367  0.73703624  1
  O  O28  4  0.08355846  0.62978896  0.30054760  1
  O  O29  4  0.12566555  0.76100771  0.24105668  1
  O  O30  4  0.26756621  0.24664337  0.33097975  1
  O  O31  4  0.37336329  0.62895474  -0.20525215  1
  O  O32  4  0.51941727  0.46142785  -0.09118921  1
  O  O33  4  0.62150993  0.57515391  0.56415060  1
  O  O34  4  0.62802330  0.25042680  0.58374275  1
  O  O35  4  0.72120123  0.38486824  0.59896071  1
