###############################################################################################
#
# CIF file generated by modified CIFWriter class 
# in pymatgen (v2025.03.10) https://pymatgen.org/
#
###############################################################################################
data_MACE-OFF23(L)_dc661c95aa10c29
_symmetry_space_group_name_H-M   P2_12_12_1
_cell_length_a   9.29216801
_cell_length_b   14.35007158
_cell_length_c   11.64940562
_cell_angle_alpha   90.00000000
_cell_angle_beta   90.00000000
_cell_angle_gamma   90.00000000
_symmetry_Int_Tables_number   19
_chemical_formula_moiety   'C6 H6 N12 O12'
_chemical_formula_sum   'H24 C24 N48 O48'
_cell_volume   1553.36990945
_cell_formula_units_Z   4
loop_
 _symmetry_equiv_pos_site_id
 _symmetry_equiv_pos_as_xyz
  1  'x, y, z'
  2  '-x, y+1/2, -z+1/2'
  3  'x+1/2, -y+1/2, -z'
  4  '-x+1/2, -y, z+1/2'
loop_
 _atom_site_type_symbol
 _atom_site_label
 _atom_site_symmetry_multiplicity
 _atom_site_fract_x
 _atom_site_fract_y
 _atom_site_fract_z
 _atom_site_occupancy
  H  H0  4  -0.21084738  0.39258267  0.40306687  1
  H  H1  4  -0.13755421  0.56801433  0.66448532  1
  H  H2  4  -0.03561195  0.43571939  0.26792213  1
  H  H3  4  -0.00426506  0.43073718  0.70313798  1
  H  H4  4  0.17068827  0.64938699  0.42841956  1
  H  H5  4  0.19814520  0.48981873  0.96396000  1
  C  C6  4  -0.12608860  0.43277736  0.44306191  1
  C  C7  4  -0.08120667  0.54342168  0.58924793  1
  C  C8  4  -0.00896099  0.46246926  0.35199366  1
  C  C9  4  0.00541556  0.45191006  0.61441120  1
  C  C10  4  0.10064268  0.59175966  0.44994784  1
  C  C11  4  0.18689140  0.50027211  0.47278159  1
  N  N12  4  -0.18185867  0.51636472  0.49865917  1
  N  N13  4  -0.12899202  0.30518034  0.58408635  1
  N  N14  4  -0.08703563  0.62133582  0.30456344  1
  N  N15  4  -0.05954909  0.38281191  0.53753459  1
  N  N16  4  -0.01197215  0.70843127  0.57524185  1
  N  N17  4  0.01461807  0.56264061  0.35025763  1
  N  N18  4  0.01680902  0.61449553  0.55027074  1
  N  N19  4  0.13522100  0.43364032  0.38600084  1
  N  N20  4  0.15535533  0.46676498  0.58668597  1
  N  N21  4  0.17046417  0.97270605  0.48666942  1
  N  N22  4  0.23124482  0.41382482  0.29579455  1
  N  N23  4  0.24293005  0.58980202  1.14040175  1
  O  O24  4  -0.22187862  0.26955887  0.52565742  1
  O  O25  4  -0.17754650  0.58492465  0.24380095  1
  O  O26  4  -0.11919523  0.72416885  0.62994457  1
  O  O27  4  -0.08505964  0.27902161  0.67574795  1
  O  O28  4  -0.07512552  0.70278005  0.32678542  1
  O  O29  4  0.07548088  0.76378584  0.54106695  1
  O  O30  4  0.09609068  1.01172468  0.55697493  1
  O  O31  4  0.12441234  0.59289753  1.09863342  1
  O  O32  4  0.13144768  0.92222808  0.41007795  1
  O  O33  4  0.14215336  0.57652952  0.81709845  1
  O  O34  4  0.17947645  0.38627210  0.20735717  1
  O  O35  4  0.21892825  0.37195099  0.72778112  1
