###############################################################################################
#
# CIF file generated by modified CIFWriter class 
# in pymatgen (v2025.03.10) https://pymatgen.org/
#
###############################################################################################
data_MACE-OFF23(L)_e35265d82c63468
_symmetry_space_group_name_H-M   P2_1/c
_cell_length_a   10.86562875
_cell_length_b   12.72062411
_cell_length_c   11.31240378
_cell_angle_alpha   90.00000000
_cell_angle_beta   94.09230940
_cell_angle_gamma   90.00000000
_symmetry_Int_Tables_number   14
_chemical_formula_moiety   'C6 H6 N12 O12'
_chemical_formula_sum   'H24 C24 N48 O48'
_cell_volume   1559.58653294
_cell_formula_units_Z   4
loop_
 _symmetry_equiv_pos_site_id
 _symmetry_equiv_pos_as_xyz
  1  'x, y, z'
  2  '-x, -y, -z'
  3  '-x, y+1/2, -z+1/2'
  4  'x, -y+1/2, z+1/2'
loop_
 _atom_site_type_symbol
 _atom_site_label
 _atom_site_symmetry_multiplicity
 _atom_site_fract_x
 _atom_site_fract_y
 _atom_site_fract_z
 _atom_site_occupancy
  H  H0  4  0.00365225  0.02451390  0.65684032  1
  H  H1  4  0.11389799  0.62395452  0.09258484  1
  H  H2  4  0.20161662  0.39182264  0.45611949  1
  H  H3  4  0.27801888  0.28865573  0.30211277  1
  H  H4  4  0.39759373  0.64799067  0.34636882  1
  H  H5  4  0.47093502  -0.04509870  0.68891521  1
  C  C6  4  0.09586193  0.02160926  0.69929991  1
  C  C7  4  0.16956408  0.57767080  0.15614529  1
  C  C8  4  0.21337209  0.43785228  0.37745283  1
  C  C9  4  0.26382605  0.13017133  0.77649135  1
  C  C10  4  0.33024808  0.59132476  0.31219471  1
  C  C11  4  0.37867835  0.52323252  0.20948499  1
  N  N12  4  -0.01263322  0.43629724  0.37392300  1
  N  N13  4  0.09407776  0.47902115  0.32806353  1
  N  N14  4  0.15160266  0.70827778  0.31544586  1
  N  N15  4  0.15386295  0.32048044  0.08543850  1
  N  N16  4  0.16425298  0.11842551  0.68462230  1
  N  N17  4  0.22259131  0.64171269  0.25312119  1
  N  N18  4  0.28767071  -0.04832203  0.61144215  1
  N  N19  4  0.29074132  0.00283791  0.50410315  1
  N  N20  4  0.29450689  0.52481071  0.40793495  1
  N  N21  4  0.36076441  0.52710348  0.51704233  1
  N  N22  4  0.37914478  0.41408059  0.24464189  1
  N  N23  4  0.47829769  0.15120255  0.72447647  1
  O  O24  4  -0.10898065  0.45527217  0.31934533  1
  O  O25  4  0.00159362  0.38960885  0.46721027  1
  O  O26  4  0.04910533  0.72795988  0.27025448  1
  O  O27  4  0.07166395  0.34095348  0.01165042  1
  O  O28  4  0.19884494  -0.24256510  0.90693464  1
  O  O29  4  0.20490006  -0.01295299  0.43268305  1
  O  O30  4  0.23048392  0.25144341  0.08109046  1
  O  O31  4  0.34334102  0.04328042  1.08512406  1
  O  O32  4  0.37915878  0.44146920  -0.00833149  1
  O  O33  4  0.43092516  -0.10060616  1.03530805  1
  O  O34  4  0.43238382  0.88872690  0.31379676  1
  O  O35  4  0.46625203  0.24272390  0.75107563  1
