###############################################################################################
#
# CIF file generated by modified CIFWriter class 
# in pymatgen (v2025.03.10) https://pymatgen.org/
#
###############################################################################################
data_MACE-OFF23(L)_e3cab844e9ab181
_symmetry_space_group_name_H-M   Cc
_cell_length_a   13.27390144
_cell_length_b   9.79835428
_cell_length_c   12.54812478
_cell_angle_alpha   90.00000000
_cell_angle_beta   95.34567725
_cell_angle_gamma   90.00000000
_symmetry_Int_Tables_number   9
_chemical_formula_moiety   'C6 H6 N12 O12'
_chemical_formula_sum   'H24 C24 N48 O48'
_cell_volume   1624.94092666
_cell_formula_units_Z   4
loop_
 _symmetry_equiv_pos_site_id
 _symmetry_equiv_pos_as_xyz
  1  'x, y, z'
  2  'x, -y, z+1/2'
  3  'x+1/2, y+1/2, z'
  4  'x+1/2, -y+1/2, z+1/2'
loop_
 _atom_site_type_symbol
 _atom_site_label
 _atom_site_symmetry_multiplicity
 _atom_site_fract_x
 _atom_site_fract_y
 _atom_site_fract_z
 _atom_site_occupancy
  H  H0  4  -0.09501080  0.20084162  0.46257829  1
  H  H1  4  0.01183317  0.56064626  0.22110235  1
  H  H2  4  0.04699472  0.73256360  -0.12761120  1
  H  H3  4  0.14049106  1.02031811  0.09046687  1
  H  H4  4  0.15840243  0.49639744  0.63509934  1
  H  H5  4  0.20165151  0.88877177  0.24039014  1
  C  C6  4  -0.02852936  0.21656279  0.51796279  1
  C  C7  4  0.03494513  0.64254941  0.17136767  1
  C  C8  4  0.06544105  0.25896711  0.45791476  1
  C  C9  4  0.11203710  0.91691158  0.08396791  1
  C  C10  4  0.13013054  0.60449696  0.11395726  1
  C  C11  4  0.15358199  0.82859573  0.18414802  1
  N  N12  4  -0.14609742  0.34661941  0.61887759  1
  N  N13  4  -0.04959881  1.03204449  0.03676454  1
  N  N14  4  -0.04708438  0.67520486  0.09159451  1
  N  N15  4  0.00156140  0.91182057  0.07307211  1
  N  N16  4  0.01005388  0.82910565  0.29667730  1
  N  N17  4  0.07358492  0.75930865  0.23547042  1
  N  N18  4  0.10423699  0.38794327  0.49996574  1
  N  N19  4  0.13438410  0.85200321  -0.01447529  1
  N  N20  4  0.13581164  0.48848034  0.43328784  1
  N  N21  4  0.20153133  0.89955992  -0.08165107  1
  N  N22  4  0.20653298  0.29145949  0.64883019  1
  N  N23  4  0.29219766  0.33602367  0.71468529  1
  O  O24  4  -0.20931914  0.26630902  0.58428427  1
  O  O25  4  -0.15760978  0.55258423  0.17174975  1
  O  O26  4  -0.13196739  -0.01713899  0.48916173  1
  O  O27  4  -0.06617285  0.22927808  0.81564503  1
  O  O28  4  -0.00800595  -0.13785849  0.56253194  1
  O  O29  4  0.03827187  0.94126939  0.32805609  1
  O  O30  4  0.13099056  0.53910035  -0.16153332  1
  O  O31  4  0.16188500  0.59549116  0.47382191  1
  O  O32  4  0.20466632  0.83763350  -0.16457678  1
  O  O33  4  0.25121027  0.99849402  -0.05167084  1
  O  O34  4  0.31391372  0.54492724  0.20807183  1
  O  O35  4  0.33870168  0.24934046  0.76683974  1
