###############################################################################################
#
# CIF file generated by modified CIFWriter class 
# in pymatgen (v2025.03.10) https://pymatgen.org/
#
###############################################################################################
data_MACE-OFF23(L)_e3de97a2e6c681
_symmetry_space_group_name_H-M   P2_1/c
_cell_length_a   8.10840383
_cell_length_b   12.92221814
_cell_length_c   15.66308401
_cell_angle_alpha   90.00000000
_cell_angle_beta   76.46051337
_cell_angle_gamma   90.00000000
_symmetry_Int_Tables_number   14
_chemical_formula_moiety   'C6 H6 N12 O12'
_chemical_formula_sum   'H24 C24 N48 O48'
_cell_volume   1595.54576560
_cell_formula_units_Z   4
loop_
 _symmetry_equiv_pos_site_id
 _symmetry_equiv_pos_as_xyz
  1  'x, y, z'
  2  '-x, -y, -z'
  3  '-x, y+1/2, -z+1/2'
  4  'x, -y+1/2, z+1/2'
loop_
 _atom_site_type_symbol
 _atom_site_label
 _atom_site_symmetry_multiplicity
 _atom_site_fract_x
 _atom_site_fract_y
 _atom_site_fract_z
 _atom_site_occupancy
  H  H0  4  0.09835737  0.90480852  0.15416556  1
  H  H1  4  0.12956527  0.61491384  0.03937380  1
  H  H2  4  0.38159430  0.93921164  0.07818703  1
  H  H3  4  0.40291154  0.75299454  0.28102875  1
  H  H4  4  0.41531350  0.85384769  0.46573085  1
  H  H5  4  0.42299990  0.91242531  0.71669329  1
  C  C6  4  0.17596736  0.83572294  0.14467376  1
  C  C7  4  0.19405187  0.66351823  0.07731637  1
  C  C8  4  0.36359199  0.85834629  0.09548404  1
  C  C9  4  0.36567329  0.74512974  0.71915774  1
  C  C10  4  0.37803232  0.85628125  0.67631772  1
  C  C11  4  0.38182743  0.68548594  0.02832292  1
  N  N12  4  -0.05795844  0.72667941  0.58304437  1
  N  N13  4  0.08066574  0.91027146  0.72294771  1
  N  N14  4  0.09443141  0.82588337  0.30764860  1
  N  N15  4  0.10385087  0.76022254  0.09626636  1
  N  N16  4  0.19423990  0.79333409  0.22829216  1
  N  N17  4  0.21925795  0.61062398  0.15599328  1
  N  N18  4  0.39982204  0.43185540  0.94060210  1
  N  N19  4  0.40529157  0.70331636  0.51559835  1
  N  N20  4  0.44225733  0.32490690  0.54479899  1
  N  N21  4  0.46050038  0.40978920  0.30299354  1
  N  N22  4  0.46556721  0.67078929  0.65801098  1
  N  N23  4  0.48395460  0.64701395  0.08771652  1
  O  O24  4  -0.12369272  0.64344890  0.60355979  1
  O  O25  4  -0.11748153  0.79801083  0.55040683  1
  O  O26  4  -0.05530652  0.58666456  0.20369146  1
  O  O27  4  -0.03702787  0.63241835  0.80429091  1
  O  O28  4  0.10769654  0.57443268  0.29472793  1
  O  O29  4  0.14590626  0.80540461  0.37215460  1
  O  O30  4  0.34794005  0.05932169  0.51937351  1
  O  O31  4  0.35386531  0.01850251  0.38524559  1
  O  O32  4  0.37392603  0.40340746  0.52932226  1
  O  O33  4  0.39755991  0.23100625  1.10738675  1
  O  O34  4  0.40613161  0.11388065  0.74051231  1
  O  O35  4  0.45207442  0.00613670  0.83778199  1
