###############################################################################################
#
# CIF file generated by modified CIFWriter class 
# in pymatgen (v2025.03.10) https://pymatgen.org/
#
###############################################################################################
data_MACE-OFF23(L)_e60df9f8231d99
_symmetry_space_group_name_H-M   P4_1
_cell_length_a   8.39563614
_cell_length_b   8.39563614
_cell_length_c   25.81029230
_cell_angle_alpha   90.00000000
_cell_angle_beta   90.00000000
_cell_angle_gamma   90.00000000
_symmetry_Int_Tables_number   76
_chemical_formula_moiety   'C6 H6 N12 O12'
_chemical_formula_sum   'H24 C24 N48 O48'
_cell_volume   1819.28249156
_cell_formula_units_Z   4
loop_
 _symmetry_equiv_pos_site_id
 _symmetry_equiv_pos_as_xyz
  1  'x, y, z'
  2  '-y, x, z+1/4'
  3  '-x, -y, z+1/2'
  4  'y, -x, z+3/4'
loop_
 _atom_site_type_symbol
 _atom_site_label
 _atom_site_symmetry_multiplicity
 _atom_site_fract_x
 _atom_site_fract_y
 _atom_site_fract_z
 _atom_site_occupancy
  H  H0  4  0.03812202  0.45504016  0.08516453  1
  H  H1  4  0.08918350  0.19005119  0.05384673  1
  H  H2  4  0.30739697  0.54447337  0.89930295  1
  H  H3  4  0.35226109  0.58801268  0.59243837  1
  H  H4  4  0.36556673  0.56476152  0.70502326  1
  H  H5  4  0.37010758  0.38163659  0.23532774  1
  C  C6  4  0.16136497  0.43642047  0.07469572  1
  C  C7  4  0.19469255  0.26377162  0.05424778  1
  C  C8  4  0.34034202  0.59725651  0.86275398  1
  C  C9  4  0.36640890  0.54097970  0.01507067  1
  C  C10  4  0.36829706  0.60058802  0.74515183  1
  C  C11  4  0.40859320  0.46837838  0.82440384  1
  N  N12  4  0.06196987  0.61569270  0.83690925  1
  N  N13  4  0.08748633  0.61363667  0.00415432  1
  N  N14  4  0.15106329  0.77556332  0.71661850  1
  N  N15  4  0.20686712  0.55528942  0.03653196  1
  N  N16  4  0.20840496  0.68725442  0.84166986  1
  N  N17  4  0.25533772  0.27647636  0.00165747  1
  N  N18  4  0.26606730  0.44424833  0.11978265  1
  N  N19  4  0.28273565  0.32106916  0.75318089  1
  N  N20  4  0.28691222  0.58773703  0.14504746  1
  N  N21  4  0.31132302  0.46905640  0.77761382  1
  N  N22  4  0.31466754  0.59810098  0.30143587  1
  N  N23  4  0.43539920  0.48117912  0.30628428  1
  O  O24  4  -0.04756160  0.59853857  0.01897927  1
  O  O25  4  -0.03733058  0.68843118  0.81252701  1
  O  O26  4  0.04643232  0.48882198  0.85856816  1
  O  O27  4  0.06688258  0.88677003  0.72655346  1
  O  O28  4  0.13092854  0.67699901  -0.03557842  1
  O  O29  4  0.14532417  0.69037475  0.67881002  1
  O  O30  4  0.18171856  0.68343491  0.14089265  1
  O  O31  4  0.20619609  0.71618666  0.53126512  1
  O  O32  4  0.21908675  0.57876230  0.26723011  1
  O  O33  4  0.25291100  0.32636431  0.70774180  1
  O  O34  4  0.29982508  0.31784910  0.58390894  1
  O  O35  4  0.40077111  0.40987312  0.41979918  1
