###############################################################################################
#
# CIF file generated by modified CIFWriter class 
# in pymatgen (v2025.03.10) https://pymatgen.org/
#
###############################################################################################
data_MACE-OFF23(L)_e67e15d2256cd09
_symmetry_space_group_name_H-M   P4_1
_cell_length_a   16.03892742
_cell_length_b   16.03892742
_cell_length_c   7.38709037
_cell_angle_alpha   90.00000000
_cell_angle_beta   90.00000000
_cell_angle_gamma   90.00000000
_symmetry_Int_Tables_number   76
_chemical_formula_moiety   'C6 H6 N12 O12'
_chemical_formula_sum   'H24 C24 N48 O48'
_cell_volume   1900.30826084
_cell_formula_units_Z   4
loop_
 _symmetry_equiv_pos_site_id
 _symmetry_equiv_pos_as_xyz
  1  'x, y, z'
  2  '-y, x, z+1/4'
  3  '-x, -y, z+1/2'
  4  'y, -x, z+3/4'
loop_
 _atom_site_type_symbol
 _atom_site_label
 _atom_site_symmetry_multiplicity
 _atom_site_fract_x
 _atom_site_fract_y
 _atom_site_fract_z
 _atom_site_occupancy
  H  H0  4  0.02918781  0.84348283  0.87450250  1
  H  H1  4  0.05654905  0.61598276  1.09454211  1
  H  H2  4  0.11695650  0.53819320  0.85988465  1
  H  H3  4  0.13296038  0.70952825  0.45512956  1
  H  H4  4  0.15480663  0.16020511  0.27275637  1
  H  H5  4  0.26351223  0.70443526  0.60961066  1
  C  C6  4  0.06418318  0.78713186  0.84971388  1
  C  C7  4  0.08282208  0.65652688  0.99242396  1
  C  C8  4  0.12282246  0.60426307  0.83391438  1
  C  C9  4  0.12533455  0.70676525  0.59949618  1
  C  C10  4  0.15059840  0.78834893  0.94748705  1
  C  C11  4  0.21090296  0.70558060  0.70140698  1
  N  N12  4  -0.04946536  0.72968206  1.03554734  1
  N  N13  4  0.01790613  0.59698749  0.58730132  1
  N  N14  4  0.02049093  0.71400980  0.92218284  1
  N  N15  4  0.02565745  0.81913721  0.53521936  1
  N  N16  4  0.07714787  0.77807888  0.65748408  1
  N  N17  4  0.09146072  0.62706023  0.65623591  1
  N  N18  4  0.14125127  0.71663503  1.06852462  1
  N  N19  4  0.18504953  0.29403948  0.09497993  1
  N  N20  4  0.20720751  0.68940795  1.17041290  1
  N  N21  4  0.20996318  0.62846242  0.81025518  1
  N  N22  4  0.21571896  0.77878418  0.81370220  1
  N  N23  4  0.26420497  0.56384569  0.74835470  1
  O  O24  4  -0.07883350  0.79908339  1.02690938  1
  O  O25  4  -0.07442036  0.67160138  1.12102210  1
  O  O26  4  -0.02441331  0.86778802  0.59809053  1
  O  O27  4  -0.01377750  0.53972115  0.66893033  1
  O  O28  4  -0.00591762  0.62899702  0.44870246  1
  O  O29  4  0.03706287  0.80485353  0.37683093  1
  O  O30  4  0.12397468  0.29400486  0.19072346  1
  O  O31  4  0.20006619  0.62049347  1.23719069  1
  O  O32  4  0.21611238  0.35266221  0.01982599  1
  O  O33  4  0.24603824  0.49440084  0.79451174  1
  O  O34  4  0.26248988  0.26440102  0.44131259  1
  O  O35  4  0.32463306  0.58632718  0.66511760  1
