###############################################################################################
#
# CIF file generated by modified CIFWriter class 
# in pymatgen (v2025.03.10) https://pymatgen.org/
#
###############################################################################################
data_MACE-OFF23(L)_e787243d1fdddf7
_symmetry_space_group_name_H-M   Pna2_1
_cell_length_a   13.34971727
_cell_length_b   9.16707883
_cell_length_c   12.63155547
_cell_angle_alpha   90.00000000
_cell_angle_beta   90.00000000
_cell_angle_gamma   90.00000000
_symmetry_Int_Tables_number   33
_chemical_formula_moiety   'C6 H6 N12 O12'
_chemical_formula_sum   'H24 C24 N48 O48'
_cell_volume   1545.82336602
_cell_formula_units_Z   4
loop_
 _symmetry_equiv_pos_site_id
 _symmetry_equiv_pos_as_xyz
  1  'x, y, z'
  2  '-x, -y, z+1/2'
  3  '-x+1/2, y+1/2, z+1/2'
  4  'x+1/2, -y+1/2, z'
loop_
 _atom_site_type_symbol
 _atom_site_label
 _atom_site_symmetry_multiplicity
 _atom_site_fract_x
 _atom_site_fract_y
 _atom_site_fract_z
 _atom_site_occupancy
  H  H0  4  0.03013725  1.18994410  0.12377949  1
  H  H1  4  0.08368734  0.83813750  -0.05726294  1
  H  H2  4  0.10151192  1.11997178  0.28716428  1
  H  H3  4  0.15602494  0.38315526  0.70074059  1
  H  H4  4  0.20907253  0.71491958  0.22812223  1
  H  H5  4  0.21746161  1.00558968  -0.08565140  1
  C  C6  4  0.08161893  1.10011780  0.11325085  1
  C  C7  4  0.11083960  0.88510096  0.01579370  1
  C  C8  4  0.12878570  1.05344273  0.22291466  1
  C  C9  4  0.18615857  0.81105730  0.18518936  1
  C  C10  4  0.19929344  0.99484149  -0.00257125  1
  C  C11  4  0.22571945  0.42073646  0.66678133  1
  N  N12  4  -0.05709248  0.99333335  0.01002724  1
  N  N13  4  0.02682028  0.84237455  0.27730781  1
  N  N14  4  0.03296170  0.97318348  0.06625966  1
  N  N15  4  0.11649734  0.89911971  0.24571156  1
  N  N16  4  0.11841649  0.46230465  0.50995469  1
  N  N17  4  0.14038112  0.76747047  0.08563510  1
  N  N18  4  0.14637424  1.24899317  -0.03279059  1
  N  N19  4  0.16265721  1.13423435  0.04021875  1
  N  N20  4  0.17443698  0.63914638  0.03904983  1
  N  N21  4  0.20783986  0.67521994  0.72802201  1
  N  N22  4  0.21448180  0.43930861  0.55318059  1
  N  N23  4  0.23713397  1.04997811  0.22103351  1
  O  O24  4  -0.09729296  1.11019897  0.01716075  1
  O  O25  4  -0.08706586  0.88750307  -0.03781657  1
  O  O26  4  -0.03477877  0.93026058  0.31040523  1
  O  O27  4  0.01740214  0.71250541  0.27190226  1
  O  O28  4  0.04888766  0.42181831  0.56332860  1
  O  O29  4  0.07761399  1.32928276  -0.01410782  1
  O  O30  4  0.11578981  0.51270518  0.42208982  1
  O  O31  4  0.11943556  0.66446196  0.70764907  1
  O  O32  4  0.16005171  0.62552755  -0.05492590  1
  O  O33  4  0.20674360  1.25687136  -0.10378236  1
  O  O34  4  0.21398404  0.55190298  0.09741581  1
  O  O35  4  0.24749398  1.28350868  0.25587897  1
