###############################################################################################
#
# CIF file generated by modified CIFWriter class 
# in pymatgen (v2025.03.10) https://pymatgen.org/
#
###############################################################################################
data_MACE-OFF23(L)_e8800fd52929b2a
_symmetry_space_group_name_H-M   P2_1/c
_cell_length_a   15.49494929
_cell_length_b   13.30591793
_cell_length_c   8.00520238
_cell_angle_alpha   90.00000000
_cell_angle_beta   85.77755283
_cell_angle_gamma   90.00000000
_symmetry_Int_Tables_number   14
_chemical_formula_moiety   'C6 H6 N12 O12'
_chemical_formula_sum   'H24 C24 N48 O48'
_cell_volume   1645.98893314
_cell_formula_units_Z   4
loop_
 _symmetry_equiv_pos_site_id
 _symmetry_equiv_pos_as_xyz
  1  'x, y, z'
  2  '-x, -y, -z'
  3  '-x+1/2, y+1/2, -z+1/2'
  4  'x+1/2, -y+1/2, z+1/2'
loop_
 _atom_site_type_symbol
 _atom_site_label
 _atom_site_symmetry_multiplicity
 _atom_site_fract_x
 _atom_site_fract_y
 _atom_site_fract_z
 _atom_site_occupancy
  H  H0  4  0.08164135  0.53067552  0.13623919  1
  H  H1  4  0.11498857  0.36610443  0.03029982  1
  H  H2  4  0.12295481  -0.14437371  0.47796470  1
  H  H3  4  0.15786192  -0.08938409  0.74925938  1
  H  H4  4  0.18149360  0.13744515  0.28859175  1
  H  H5  4  0.21759730  0.19339607  0.55692069  1
  C  C6  4  0.14890754  0.52414975  0.09165289  1
  C  C7  4  0.17076831  0.41520995  0.02057217  1
  C  C8  4  0.17420280  -0.08909827  0.47174178  1
  C  C9  4  0.19726551  -0.05312304  0.64994112  1
  C  C10  4  0.21026522  0.07863985  0.35880003  1
  C  C11  4  0.23263595  0.11482181  0.53693197  1
  N  N12  4  0.06538017  0.00917774  0.33390367  1
  N  N13  4  0.11896893  0.67729591  -0.06695196  1
  N  N14  4  0.14707106  0.09879031  0.80704070  1
  N  N15  4  0.15063752  -0.00495448  0.36938018  1
  N  N16  4  0.16350887  0.43427244  -0.28111092  1
  N  N17  4  0.17330585  0.60105006  0.36293160  1
  N  N18  4  0.17395538  0.59738650  -0.03774183  1
  N  N19  4  0.18495062  0.05451608  0.66093893  1
  N  N20  4  0.20665090  0.54652501  0.22239314  1
  N  N21  4  0.21189775  0.41638796  -0.14836054  1
  N  N22  4  0.23544294  0.32085717  0.24376081  1
  N  N23  4  0.24390138  0.37062669  0.09614424  1
  O  O24  4  0.01879789  -0.06416970  0.34792863  1
  O  O25  4  0.04481995  0.66900101  -0.01130477  1
  O  O26  4  0.04488213  0.09196508  0.29048322  1
  O  O27  4  0.08618005  0.44013363  -0.25008687  1
  O  O28  4  0.09618139  0.60047102  0.39031507  1
  O  O29  4  0.11906308  0.04239641  0.91550716  1
  O  O30  4  0.14372828  0.18951122  0.80729845  1
  O  O31  4  0.15019572  0.74465443  -0.15222529  1
  O  O32  4  0.16239556  0.30512402  0.30224050  1
  O  O33  4  0.19798545  -0.20622697  0.19784544  1
  O  O34  4  0.20283156  0.44016258  -0.41734388  1
  O  O35  4  0.22593772  0.64008951  0.44666490  1
