###############################################################################################
#
# CIF file generated by modified CIFWriter class 
# in pymatgen (v2025.03.10) https://pymatgen.org/
#
###############################################################################################
data_MACE-OFF23(L)_ea403936c559ad
_symmetry_space_group_name_H-M   P2_1/c
_cell_length_a   7.63298611
_cell_length_b   11.89293642
_cell_length_c   18.63055597
_cell_angle_alpha   90.00000000
_cell_angle_beta   70.46324416
_cell_angle_gamma   90.00000000
_symmetry_Int_Tables_number   14
_chemical_formula_moiety   'C6 H6 N12 O12'
_chemical_formula_sum   'H24 C24 N48 O48'
_cell_volume   1593.88570875
_cell_formula_units_Z   4
loop_
 _symmetry_equiv_pos_site_id
 _symmetry_equiv_pos_as_xyz
  1  'x, y, z'
  2  '-x, -y, -z'
  3  '-x, y+1/2, -z+1/2'
  4  'x, -y+1/2, z+1/2'
loop_
 _atom_site_type_symbol
 _atom_site_label
 _atom_site_symmetry_multiplicity
 _atom_site_fract_x
 _atom_site_fract_y
 _atom_site_fract_z
 _atom_site_occupancy
  H  H0  4  0.21384913  0.43223984  0.19224441  1
  H  H1  4  0.26128529  0.76075261  0.49194961  1
  H  H2  4  0.29706345  0.11968399  0.26449472  1
  H  H3  4  0.42088394  0.47878128  0.64819086  1
  H  H4  4  0.44135992  0.24376966  0.49100069  1
  H  H5  4  0.49519890  0.93002112  0.28751786  1
  C  C6  4  0.29239070  0.14347796  0.67085280  1
  C  C7  4  0.34810537  0.32348996  0.71674401  1
  C  C8  4  0.37464968  0.74580539  0.93851577  1
  C  C9  4  0.43019868  0.24751116  0.55041103  1
  C  C10  4  0.43251703  0.38900944  0.63945122  1
  C  C11  4  0.48592496  0.35607151  0.18229670  1
  N  N12  4  0.03595413  0.28034192  0.71625697  1
  N  N13  4  0.20201891  0.59307098  0.90216779  1
  N  N14  4  0.20725025  0.25787601  0.21481143  1
  N  N15  4  0.23363350  0.89763397  0.88254301  1
  N  N16  4  0.30080974  0.44052783  0.05029312  1
  N  N17  4  0.31142596  0.43557587  0.53713794  1
  N  N18  4  0.31229346  0.15605704  0.59088668  1
  N  N19  4  0.34421483  0.35317271  0.58502288  1
  N  N20  4  0.37016264  0.64929192  0.89145040  1
  N  N21  4  0.37836909  0.85473740  0.90176233  1
  N  N22  4  0.48517235  0.76118328  0.20413845  1
  N  N23  4  0.48670241  0.25353677  0.22594751  1
  O  O24  4  -0.06411618  0.28686230  0.20029853  1
  O  O25  4  0.00083573  0.37705153  0.73597966  1
  O  O26  4  0.07302069  0.61876958  0.95773375  1
  O  O27  4  0.07944463  0.86483336  0.91865944  1
  O  O28  4  0.20385190  0.97827554  0.35604457  1
  O  O29  4  0.23943389  -0.02396563  0.58663219  1
  O  O30  4  0.27509649  0.53338994  0.33168232  1
  O  O31  4  0.29219045  0.53083976  0.56103285  1
  O  O32  4  0.29802510  0.40397536  0.47773671  1
  O  O33  4  0.35050407  0.43159573  -0.01841141  1
  O  O34  4  0.41539408  0.84701655  0.19204753  1
  O  O35  4  0.47677966  0.32122938  0.83587375  1
