###############################################################################################
#
# CIF file generated by modified CIFWriter class 
# in pymatgen (v2025.03.10) https://pymatgen.org/
#
###############################################################################################
data_MACE-OFF23(L)_eb5040bc1768e56
_symmetry_space_group_name_H-M   P2_12_12_1
_cell_length_a   7.11641590
_cell_length_b   10.03029150
_cell_length_c   22.85170154
_cell_angle_alpha   90.00000000
_cell_angle_beta   90.00000000
_cell_angle_gamma   90.00000000
_symmetry_Int_Tables_number   19
_chemical_formula_moiety   'C6 H6 N12 O12'
_chemical_formula_sum   'H24 C24 N48 O48'
_cell_volume   1631.14819215
_cell_formula_units_Z   4
loop_
 _symmetry_equiv_pos_site_id
 _symmetry_equiv_pos_as_xyz
  1  'x, y, z'
  2  '-x+1/2, -y, z+1/2'
  3  'x+1/2, -y+1/2, -z'
  4  '-x, y+1/2, -z+1/2'
loop_
 _atom_site_type_symbol
 _atom_site_label
 _atom_site_symmetry_multiplicity
 _atom_site_fract_x
 _atom_site_fract_y
 _atom_site_fract_z
 _atom_site_occupancy
  H  H0  4  -0.16622237  -0.09400052  0.32034560  1
  H  H1  4  -0.08899481  0.23450661  0.42127138  1
  H  H2  4  -0.00056917  0.95223511  0.86234260  1
  H  H3  4  0.03838731  0.28420349  0.32745257  1
  H  H4  4  0.09534596  -0.22653920  0.34331543  1
  H  H5  4  0.12190819  0.99960821  0.95779149  1
  C  C6  4  -0.05649070  -0.03618126  0.34095607  1
  C  C7  4  -0.00730920  0.15268318  0.40402111  1
  C  C8  4  0.07514416  0.18511105  0.34230512  1
  C  C9  4  0.11960730  -0.12477779  0.35638587  1
  C  C10  4  0.15063264  0.95621602  0.86315617  1
  C  C11  4  0.23175391  0.98703827  0.92558981  1
  N  N12  4  -0.23799242  -0.02087892  0.43209535  1
  N  N13  4  -0.12469106  0.03709759  0.39126982  1
  N  N14  4  -0.01234122  0.08177399  0.30644176  1
  N  N15  4  0.03721254  0.06866959  0.24873467  1
  N  N16  4  0.09193215  1.14893299  0.79808914  1
  N  N17  4  0.10760075  0.71863146  0.84711154  1
  N  N18  4  0.12363603  0.14476416  0.50310760  1
  N  N19  4  0.14920358  0.12317410  0.44290964  1
  N  N20  4  0.16323593  -0.11267496  0.41868780  1
  N  N21  4  0.21779906  1.06694644  0.82777993  1
  N  N22  4  0.22195770  0.83140354  0.84058425  1
  N  N23  4  0.24898964  -0.22767132  0.44471260  1
  O  O24  4  -0.06027258  0.73919293  0.84701694  1
  O  O25  4  -0.05568842  1.09794457  0.78400046  1
  O  O26  4  0.01222714  -0.03989978  0.22734297  1
  O  O27  4  0.01284862  0.23051433  0.51656372  1
  O  O28  4  0.09835359  0.16721933  0.22484550  1
  O  O29  4  0.14487690  1.25989196  0.78674175  1
  O  O30  4  0.16684170  1.20794792  0.98964287  1
  O  O31  4  0.18192022  0.62279299  0.58281625  1
  O  O32  4  0.18567537  0.61264131  0.85052934  1
  O  O33  4  0.21984998  0.08001658  0.53600203  1
  O  O34  4  0.22154264  -0.33205841  0.42049496  1
  O  O35  4  0.24501958  0.46313624  0.52183203  1
