###############################################################################################
#
# CIF file generated by modified CIFWriter class 
# in pymatgen (v2025.03.10) https://pymatgen.org/
#
###############################################################################################
data_MACE-OFF23(L)_efea8906e3c8fc2
_symmetry_space_group_name_H-M   P2_12_12_1
_cell_length_a   9.14161122
_cell_length_b   12.39601544
_cell_length_c   13.65701143
_cell_angle_alpha   90.00000000
_cell_angle_beta   90.00000000
_cell_angle_gamma   90.00000000
_symmetry_Int_Tables_number   19
_chemical_formula_moiety   'C6 H6 N12 O12'
_chemical_formula_sum   'H24 C24 N48 O48'
_cell_volume   1547.60644177
_cell_formula_units_Z   4
loop_
 _symmetry_equiv_pos_site_id
 _symmetry_equiv_pos_as_xyz
  1  'x, y, z'
  2  '-x+1/2, -y, z+1/2'
  3  'x+1/2, -y+1/2, -z'
  4  '-x, y+1/2, -z+1/2'
loop_
 _atom_site_type_symbol
 _atom_site_label
 _atom_site_symmetry_multiplicity
 _atom_site_fract_x
 _atom_site_fract_y
 _atom_site_fract_z
 _atom_site_occupancy
  H  H0  4  -0.02278687  0.15364520  0.68086194  1
  H  H1  4  0.02018885  0.92378437  0.11585071  1
  H  H2  4  0.07590772  0.88046757  0.40582512  1
  H  H3  4  0.13706387  0.29349073  0.62315299  1
  H  H4  4  0.17903042  1.06338179  0.17240550  1
  H  H5  4  0.22883516  0.24593393  0.91250712  1
  C  C6  4  0.08824425  0.14467187  0.70730372  1
  C  C7  4  0.10289447  0.89440065  0.16595759  1
  C  C8  4  0.13362919  0.87692972  0.33695347  1
  C  C9  4  0.19234995  0.23669175  0.67043553  1
  C  C10  4  0.20799375  0.98525515  0.20159738  1
  C  C11  4  0.23561210  0.20714279  0.84174343  1
  N  N12  4  -0.11457248  0.86268221  0.27037361  1
  N  N13  4  0.03322313  0.08390445  0.87509479  1
  N  N14  4  0.03742184  0.85125991  0.25551436  1
  N  N15  4  0.05079238  -0.03655957  0.63768077  1
  N  N16  4  0.09647472  0.15913622  0.81373521  1
  N  N17  4  0.14448923  0.04192026  0.67377136  1
  N  N18  4  0.15427760  0.63682984  0.26159856  1
  N  N19  4  0.15447301  0.77907466  0.02375783  1
  N  N20  4  0.16136344  1.07304097  0.36100337  1
  N  N21  4  0.18513481  0.80977534  0.11860471  1
  N  N22  4  0.19162975  0.98159821  0.30815600  1
  N  N23  4  0.23826637  0.28587975  0.76287793  1
  O  O24  4  -0.18604291  0.88863029  0.20034246  1
  O  O25  4  -0.15665066  0.84069182  0.35151050  1
  O  O26  4  -0.07412594  -0.01036721  0.62292134  1
  O  O27  4  -0.05458880  0.02359435  0.83845623  1
  O  O28  4  0.06374923  0.83258262  -0.01954176  1
  O  O29  4  0.07102075  0.08764987  0.96018272  1
  O  O30  4  0.08643648  0.62330789  0.33691717  1
  O  O31  4  0.10459517  -0.12455793  0.62216254  1
  O  O32  4  0.12679158  1.06026957  0.44591914  1
  O  O33  4  0.13896231  0.58668765  0.18620545  1
  O  O34  4  0.17582236  1.15814363  0.31908332  1
  O  O35  4  0.21968543  0.70225303  -0.00805363  1
