###############################################################################################
#
# CIF file generated by modified CIFWriter class 
# in pymatgen (v2025.03.10) https://pymatgen.org/
#
###############################################################################################
data_MACE-OFF23(L)_f21236953194d18
_symmetry_space_group_name_H-M   Pna2_1
_cell_length_a   21.08923769
_cell_length_b   10.96867853
_cell_length_c   8.08313550
_cell_angle_alpha   90.00000000
_cell_angle_beta   90.00000000
_cell_angle_gamma   90.00000000
_symmetry_Int_Tables_number   33
_chemical_formula_moiety   'C6 H6 N12 O12'
_chemical_formula_sum   'H24 C24 N48 O48'
_cell_volume   1869.79954158
_cell_formula_units_Z   4
loop_
 _symmetry_equiv_pos_site_id
 _symmetry_equiv_pos_as_xyz
  1  'x, y, z'
  2  '-x, -y, z+1/2'
  3  '-x+1/2, y+1/2, z+1/2'
  4  'x+1/2, -y+1/2, z'
loop_
 _atom_site_type_symbol
 _atom_site_label
 _atom_site_symmetry_multiplicity
 _atom_site_fract_x
 _atom_site_fract_y
 _atom_site_fract_z
 _atom_site_occupancy
  H  H0  4  0.08056852  0.99938802  0.83813643  1
  H  H1  4  0.09244418  1.03191512  0.33754120  1
  H  H2  4  0.12470821  0.80195422  0.88448563  1
  H  H3  4  0.17027125  0.69149825  0.42751034  1
  H  H4  4  0.18476630  1.12642407  0.45343686  1
  H  H5  4  0.23707699  0.28508569  0.04190806  1
  C  C6  4  0.10768211  0.96747264  0.73352190  1
  C  C7  4  0.11348555  0.97916109  0.43623630  1
  C  C8  4  0.13729387  0.83688208  0.76418510  1
  C  C9  4  0.15978504  0.77619009  0.48988824  1
  C  C10  4  0.17377478  1.04054528  0.51183897  1
  C  C11  4  0.22036618  0.83746598  0.56468757  1
  N  N12  4  0.01623965  0.90632084  0.57306123  1
  N  N13  4  0.07107308  0.97349979  0.58103179  1
  N  N14  4  0.10199719  0.81589653  0.23154708  1
  N  N15  4  0.10293311  0.63334064  0.67286183  1
  N  N16  4  0.11802091  0.75497560  0.63191429  1
  N  N17  4  0.13232980  0.86101233  0.37268987  1
  N  N18  4  0.15471304  1.05726914  0.68287952  1
  N  N19  4  0.19762923  1.10239200  0.79512608  1
  N  N20  4  0.20499358  0.84366251  0.73850527  1
  N  N21  4  0.22734370  0.47849593  -0.12553643  1
  N  N22  4  0.22880605  0.96035175  0.50042412  1
  N  N23  4  0.24897503  0.83195331  0.86141819  1
  O  O24  4  -0.00605253  0.87405371  0.70372127  1
  O  O25  4  -0.00512914  0.88725901  0.43652314  1
  O  O26  4  0.07793782  0.89120757  0.14161198  1
  O  O27  4  0.08593187  0.61587955  0.81283830  1
  O  O28  4  0.10445640  0.70769576  0.20916546  1
  O  O29  4  0.10545796  0.56170438  0.56027457  1
  O  O30  4  0.18525087  1.08717630  0.94012553  1
  O  O31  4  0.18860362  0.39958451  -0.14722717  1
  O  O32  4  0.19603733  0.32911534  0.31764395  1
  O  O33  4  0.22883087  0.82831669  1.00135571  1
  O  O34  4  0.23139369  0.57394727  -0.20108593  1
  O  O35  4  0.24316028  1.15498175  0.73869984  1
