###############################################################################################
#
# CIF file generated by modified CIFWriter class 
# in pymatgen (v2025.03.10) https://pymatgen.org/
#
###############################################################################################
data_MACE-OFF23(L)_f60504ff7523be2
_symmetry_space_group_name_H-M   P4_2
_cell_length_a   14.54238908
_cell_length_b   14.54238908
_cell_length_c   7.74216221
_cell_angle_alpha   90.00000000
_cell_angle_beta   90.00000000
_cell_angle_gamma   90.00000000
_symmetry_Int_Tables_number   77
_chemical_formula_moiety   'C6 H6 N12 O12'
_chemical_formula_sum   'H24 C24 N48 O48'
_cell_volume   1637.32082727
_cell_formula_units_Z   4
loop_
 _symmetry_equiv_pos_site_id
 _symmetry_equiv_pos_as_xyz
  1  'x, y, z'
  2  '-y, x, z+1/2'
  3  '-x, -y, z'
  4  'y, -x, z+1/2'
loop_
 _atom_site_type_symbol
 _atom_site_label
 _atom_site_symmetry_multiplicity
 _atom_site_fract_x
 _atom_site_fract_y
 _atom_site_fract_z
 _atom_site_occupancy
  H  H0  4  0.09617104  0.80208876  0.29054056  1
  H  H1  4  0.18153311  0.63773578  -0.09289591  1
  H  H2  4  0.19583444  0.22529054  0.97754082  1
  H  H3  4  0.20597221  0.44098379  0.64470722  1
  H  H4  4  0.20861299  0.21438590  0.32331441  1
  H  H5  4  0.35875957  0.40794659  0.73521797  1
  C  C6  4  0.15755204  0.77924792  0.22470428  1
  C  C7  4  0.21198068  0.67702691  0.01081719  1
  C  C8  4  0.21897052  0.24332511  0.84953494  1
  C  C9  4  0.21963471  0.36795274  0.64787265  1
  C  C10  4  0.22185927  0.23265766  0.45618507  1
  C  C11  4  0.32108142  0.34620939  0.70409574  1
  N  N12  4  0.06033345  0.64758310  0.14356274  1
  N  N13  4  0.07319852  0.31682834  0.77035729  1
  N  N14  4  0.09864397  0.87797595  -0.00533171  1
  N  N15  4  0.14772660  0.68666863  0.15532214  1
  N  N16  4  0.16540309  0.17649588  0.57187806  1
  N  N17  4  0.16747231  0.32109023  0.78204074  1
  N  N18  4  0.19171727  0.38529778  0.33684164  1
  N  N19  4  0.19943837  0.32869456  0.47983688  1
  N  N20  4  0.28413994  0.63439981  0.49238896  1
  N  N21  4  0.28733495  0.69200496  0.35337373  1
  N  N22  4  0.29810560  0.63416909  0.06154869  1
  N  N23  4  0.30209963  0.53757548  0.05189167  1
  O  O24  4  0.00381141  0.67600913  0.24463530  1
  O  O25  4  0.03455814  0.89261707  0.08836650  1
  O  O26  4  0.03642161  0.25661345  0.85484914  1
  O  O27  4  0.03663270  0.37361312  0.68086141  1
  O  O28  4  0.05129370  0.58698485  0.03890695  1
  O  O29  4  0.10052384  0.10732742  0.34537597  1
  O  O30  4  0.17843240  0.46623632  0.36352371  1
  O  O31  4  0.19746244  0.34897459  0.19676190  1
  O  O32  4  0.22788726  0.65331171  0.60292309  1
  O  O33  4  0.25172604  0.50188315  -0.05301851  1
  O  O34  4  0.33580612  0.56948821  0.49152002  1
  O  O35  4  0.35793675  0.49959351  0.14156605  1
