###############################################################################################
#
# CIF file generated by modified CIFWriter class 
# in pymatgen (v2025.03.10) https://pymatgen.org/
#
###############################################################################################
data_MACE-OFF23(L)_fb11823b6d6a640
_symmetry_space_group_name_H-M   Pca2_1
_cell_length_a   14.05347940
_cell_length_b   9.33855288
_cell_length_c   11.40394024
_cell_angle_alpha   90.00000000
_cell_angle_beta   90.00000000
_cell_angle_gamma   90.00000000
_symmetry_Int_Tables_number   29
_chemical_formula_moiety   'C6 H6 N12 O12'
_chemical_formula_sum   'H24 C24 N48 O48'
_cell_volume   1496.64354415
_cell_formula_units_Z   4
loop_
 _symmetry_equiv_pos_site_id
 _symmetry_equiv_pos_as_xyz
  1  'x, y, z'
  2  '-x, -y, z+1/2'
  3  '-x+1/2, y, z+1/2'
  4  'x+1/2, -y, z'
loop_
 _atom_site_type_symbol
 _atom_site_label
 _atom_site_symmetry_multiplicity
 _atom_site_fract_x
 _atom_site_fract_y
 _atom_site_fract_z
 _atom_site_occupancy
  H  H0  4  -0.15389375  0.10395682  0.73212540  1
  H  H1  4  -0.09073670  0.25754717  0.58315956  1
  H  H2  4  -0.06877347  0.39982637  0.98211492  1
  H  H3  4  0.00198636  0.54516039  0.83368065  1
  H  H4  4  0.12740521  0.04256384  0.74175274  1
  H  H5  4  0.18223288  0.21733715  0.88263483  1
  C  C6  4  -0.09243317  0.16354286  0.76153387  1
  C  C7  4  -0.04916104  0.25972287  0.66290223  1
  C  C8  4  -0.04071878  0.33680207  0.91059887  1
  C  C9  4  0.00494272  0.43205872  0.81322130  1
  C  C10  4  0.07590835  0.12632130  0.75666206  1
  C  C11  4  0.11108113  0.23927535  0.85165672  1
  N  N12  4  -0.19823340  0.22356412  0.92700626  1
  N  N13  4  -0.11812999  0.25634399  0.85856572  1
  N  N14  4  -0.08941288  0.51508127  0.64594109  1
  N  N15  4  -0.04200795  0.40650784  0.70284612  1
  N  N16  4  -0.02845164  -0.07543556  0.81510513  1
  N  N17  4  -0.01457666  0.06843906  0.79334906  1
  N  N18  4  0.03122530  0.14227056  1.02553989  1
  N  N19  4  0.04201669  0.25167766  0.94676244  1
  N  N20  4  0.04459337  0.19393460  0.64771654  1
  N  N21  4  0.10327050  0.38249692  0.80422150  1
  N  N22  4  0.11103087  0.26157407  0.57851573  1
  N  N23  4  0.17715110  0.48044482  0.81462619  1
  O  O24  4  -0.24694136  0.12551026  0.89371137  1
  O  O25  4  -0.21300710  0.30038523  1.00982217  1
  O  O26  4  -0.13523028  0.48150499  0.56002163  1
  O  O27  4  -0.11026773  -0.11523136  0.81954142  1
  O  O28  4  -0.08077809  0.63428608  0.68534223  1
  O  O29  4  -0.04400715  0.13720734  1.07756853  1
  O  O30  4  0.04230848  -0.14493367  0.83384932  1
  O  O31  4  0.08112189  0.34969320  0.50991576  1
  O  O32  4  0.09794298  0.06187777  1.03813739  1
  O  O33  4  0.15623127  0.60499226  0.80186093  1
  O  O34  4  0.19256395  0.22356809  0.59141668  1
  O  O35  4  0.24379086  0.43210961  0.32781757  1
