###############################################################################################
#
# CIF file generated by modified CIFWriter class 
# in pymatgen (v2025.03.10) https://pymatgen.org/
#
###############################################################################################
data_MACE-OFF23(L)_ff2e151373e74fa
_symmetry_space_group_name_H-M   P2_12_12_1
_cell_length_a   9.11252064
_cell_length_b   12.66481701
_cell_length_c   14.77623136
_cell_angle_alpha   90.00000000
_cell_angle_beta   90.00000000
_cell_angle_gamma   90.00000000
_symmetry_Int_Tables_number   19
_chemical_formula_moiety   'C6 H6 N12 O12'
_chemical_formula_sum   'H24 C24 N48 O48'
_cell_volume   1705.30131407
_cell_formula_units_Z   4
loop_
 _symmetry_equiv_pos_site_id
 _symmetry_equiv_pos_as_xyz
  1  'x, y, z'
  2  '-x+1/2, -y, z+1/2'
  3  'x+1/2, -y+1/2, -z'
  4  '-x, y+1/2, -z+1/2'
loop_
 _atom_site_type_symbol
 _atom_site_label
 _atom_site_symmetry_multiplicity
 _atom_site_fract_x
 _atom_site_fract_y
 _atom_site_fract_z
 _atom_site_occupancy
  H  H0  4  -0.07417543  0.44447860  0.53920805  1
  H  H1  4  -0.03629792  0.50653202  0.26538028  1
  H  H2  4  0.16219504  0.36730652  0.54090765  1
  H  H3  4  0.19421830  0.42264119  0.26530043  1
  H  H4  4  0.23086818  0.68003613  0.52614545  1
  H  H5  4  0.24943058  0.71218667  0.37164729  1
  C  C6  4  -0.00176120  0.48160554  0.49082305  1
  C  C7  4  0.02012523  0.51756836  0.32909219  1
  C  C8  4  0.15361547  0.42907531  0.49073782  1
  C  C9  4  0.17462323  0.46304369  0.32835754  1
  C  C10  4  0.18575351  0.61493162  0.48825596  1
  C  C11  4  0.19883840  0.63639459  0.38334459  1
  N  N12  4  -0.21844429  0.46479119  0.39168890  1
  N  N13  4  -0.06720468  0.66650717  0.52249880  1
  N  N14  4  -0.06543266  0.47393166  0.40155936  1
  N  N15  4  0.02121662  0.70017112  0.27097971  1
  N  N16  4  0.03739916  0.58925623  0.51773343  1
  N  N17  4  0.05281605  0.63058530  0.34344006  1
  N  N18  4  0.12482180  0.42463939  0.76955495  1
  N  N19  4  0.16595297  0.48726728  1.09258446  1
  N  N20  4  0.18234924  0.38676172  0.40154939  1
  N  N21  4  0.20017972  0.68697412  0.89596043  1
  N  N22  4  0.22152709  0.44960484  0.84028966  1
  N  N23  4  0.24363327  0.48417434  1.01189467  1
  O  O24  4  -0.19399626  0.63770116  0.52560400  1
  O  O25  4  -0.09125694  0.68275193  0.23110080  1
  O  O26  4  -0.02308862  0.75685310  0.52582626  1
  O  O27  4  0.07690166  0.33618930  0.76907727  1
  O  O28  4  0.09308658  0.49583944  0.71850391  1
  O  O29  4  0.10523019  0.77266370  0.25955885  1
  O  O30  4  0.11643823  0.40461228  1.12003669  1
  O  O31  4  0.14200127  0.69603815  0.82346266  1
  O  O32  4  0.14783844  0.57324645  1.12675798  1
  O  O33  4  0.17421479  0.73611970  0.96398265  1
  O  O34  4  0.21582052  1.06875711  0.54378977  1
  O  O35  4  0.23203111  1.01150253  0.68123767  1
