###############################################################################################
#
# CIF file generated by modified CIFWriter class 
# in pymatgen (v2025.03.10) https://pymatgen.org/
#
###############################################################################################
data_MACE-OFF23(L)_10792556461b816
_symmetry_space_group_name_H-M   P2_1/c
_cell_length_a   6.31601459
_cell_length_b   7.48330921
_cell_length_c   20.47690098
_cell_angle_alpha   90.00000000
_cell_angle_beta   105.37295583
_cell_angle_gamma   90.00000000
_symmetry_Int_Tables_number   14
_chemical_formula_moiety   'C8 N4 S3'
_chemical_formula_sum   'C32 S12 N16'
_cell_volume   933.20588728
_cell_formula_units_Z   4
loop_
 _symmetry_equiv_pos_site_id
 _symmetry_equiv_pos_as_xyz
  1  'x, y, z'
  2  '-x, -y, -z'
  3  '-x, y+1/2, -z+1/2'
  4  'x, -y+1/2, z+1/2'
loop_
 _atom_site_type_symbol
 _atom_site_label
 _atom_site_symmetry_multiplicity
 _atom_site_fract_x
 _atom_site_fract_y
 _atom_site_fract_z
 _atom_site_occupancy
  C  C0  4  0.15583646  0.36424731  0.78525822  1
  C  C1  4  0.30507366  0.26990598  0.83924369  1
  C  C2  4  0.33398707  0.66230431  0.53610803  1
  C  C3  4  0.35455218  0.38424317  1.06740596  1
  C  C4  4  0.46913249  0.71583798  0.73555625  1
  C  C5  4  0.47058745  0.23890275  0.97361853  1
  C  C6  4  0.48890886  0.19665796  0.82946022  1
  C  C7  4  0.49154996  0.79236320  0.46008010  1
  S  S8  4  0.21790218  0.26161524  0.91380722  1
  S  S9  4  0.22957169  0.73869902  0.41638407  1
  S  S10  4  0.30960927  0.57182166  0.61302850  1
  N  N11  4  0.03521830  0.44025066  0.74249670  1
  N  N12  4  0.16566890  0.65670458  0.48292885  1
  N  N13  4  0.23024001  0.46716630  1.08657482  1
  N  N14  4  0.43933080  0.73027858  0.78817314  1
