###############################################################################################
#
# CIF file generated by modified CIFWriter class 
# in pymatgen (v2025.03.10) https://pymatgen.org/
#
###############################################################################################
data_MACE-OFF23(L)_12780ac7e7ee6c4
_symmetry_space_group_name_H-M   P2_12_12_1
_cell_length_a   6.43719084
_cell_length_b   15.79776615
_cell_length_c   11.16993806
_cell_angle_alpha   90.00000000
_cell_angle_beta   90.00000000
_cell_angle_gamma   90.00000000
_symmetry_Int_Tables_number   19
_chemical_formula_moiety   'C8 N4 S3'
_chemical_formula_sum   'C32 S12 N16'
_cell_volume   1135.90714146
_cell_formula_units_Z   4
loop_
 _symmetry_equiv_pos_site_id
 _symmetry_equiv_pos_as_xyz
  1  'x, y, z'
  2  '-x, y+1/2, -z+1/2'
  3  'x+1/2, -y+1/2, -z'
  4  '-x+1/2, -y, z+1/2'
loop_
 _atom_site_type_symbol
 _atom_site_label
 _atom_site_symmetry_multiplicity
 _atom_site_fract_x
 _atom_site_fract_y
 _atom_site_fract_z
 _atom_site_occupancy
  C  C0  4  -0.00223545  0.79983547  0.59010569  1
  C  C1  4  0.05647952  0.81983740  0.71048442  1
  C  C2  4  0.12911511  0.76056121  0.78602786  1
  C  C3  4  0.13166460  -0.01154005  0.34089018  1
  C  C4  4  0.14873603  0.67467927  0.74693319  1
  C  C5  4  0.15354528  -0.08795046  0.27448440  1
  C  C6  4  0.17906537  0.12169170  0.41484714  1
  C  C7  4  0.24340375  0.94099817  0.83538293  1
  S  S8  4  -0.06270743  0.00564935  0.44279212  1
  S  S9  4  0.02066376  0.92734062  0.74829233  1
  S  S10  4  0.20249516  0.77912837  0.93543081  1
  N  N11  4  -0.05286429  0.78836867  0.49289288  1
  N  N12  4  0.01277278  0.10178793  0.47574748  1
  N  N13  4  0.16109999  0.60566550  0.71601720  1
  N  N14  4  0.17137005  -0.14920183  0.22016117  1
