###############################################################################################
#
# CIF file generated by modified CIFWriter class 
# in pymatgen (v2025.03.10) https://pymatgen.org/
#
###############################################################################################
data_MACE-OFF23(L)_1492044a4807b93
_symmetry_space_group_name_H-M   P2/c
_cell_length_a   6.34451401
_cell_length_b   12.99744528
_cell_length_c   11.89230360
_cell_angle_alpha   90.00000000
_cell_angle_beta   97.96563969
_cell_angle_gamma   90.00000000
_symmetry_Int_Tables_number   13
_chemical_formula_moiety   'C8 N4 S3'
_chemical_formula_sum   'C32 S12 N16'
_cell_volume   971.20664542
_cell_formula_units_Z   4
loop_
 _symmetry_equiv_pos_site_id
 _symmetry_equiv_pos_as_xyz
  1  'x, y, z'
  2  '-x, -y, -z'
  3  '-x, y, -z+1/2'
  4  'x, -y, z+1/2'
loop_
 _atom_site_type_symbol
 _atom_site_label
 _atom_site_symmetry_multiplicity
 _atom_site_fract_x
 _atom_site_fract_y
 _atom_site_fract_z
 _atom_site_occupancy
  C  C0  4  0.23159510  0.31414073  0.61295786  1
  C  C1  4  0.23681834  0.86103868  0.99000208  1
  C  C2  4  0.23869560  0.62800350  1.01995100  1
  C  C3  4  0.23964286  0.20087731  0.39088114  1
  C  C4  4  0.24671189  0.36280362  0.72168655  1
  C  C5  4  0.25334255  0.83505086  0.68499595  1
  C  C6  4  0.25347087  0.13676023  0.30057560  1
  C  C7  4  0.25838854  0.48092095  0.53810391  1
  S  S8  4  0.20390996  0.18094710  0.62612886  1
  S  S9  4  0.22422405  0.66544808  0.87773659  1
  S  S10  4  0.26607022  0.98895665  0.84416134  1
  N  N11  4  0.24962129  0.81418684  0.59083765  1
  N  N12  4  0.25139521  0.04007327  0.47633242  1
  N  N13  4  0.25930721  0.60244675  1.31105311  1
  N  N14  4  0.27099792  0.43332509  1.06070248  1
