###############################################################################################
#
# CIF file generated by modified CIFWriter class 
# in pymatgen (v2025.03.10) https://pymatgen.org/
#
###############################################################################################
data_MACE-OFF23(L)_16de16a415a51ab
_symmetry_space_group_name_H-M   Pcc2
_cell_length_a   12.52055679
_cell_length_b   13.10052171
_cell_length_c   6.66684663
_cell_angle_alpha   90.00000000
_cell_angle_beta   90.00000000
_cell_angle_gamma   90.00000000
_symmetry_Int_Tables_number   27
_chemical_formula_moiety   'C8 N4 S3'
_chemical_formula_sum   'C32 S12 N16'
_cell_volume   1093.53502644
_cell_formula_units_Z   4
loop_
 _symmetry_equiv_pos_site_id
 _symmetry_equiv_pos_as_xyz
  1  'x, y, z'
  2  '-x, -y, z'
  3  '-x, y, z+1/2'
  4  'x, -y, z+1/2'
loop_
 _atom_site_type_symbol
 _atom_site_label
 _atom_site_symmetry_multiplicity
 _atom_site_fract_x
 _atom_site_fract_y
 _atom_site_fract_z
 _atom_site_occupancy
  C  C0  4  0.10166482  0.16896561  -0.00412493  1
  C  C1  4  0.15480895  0.37914236  0.03435043  1
  C  C2  4  0.16618354  0.20554085  0.15839918  1
  C  C3  4  0.19234054  0.30472518  0.17532800  1
  C  C4  4  0.34185746  0.14990592  0.34975491  1
  C  C5  4  0.36989515  0.25485956  0.36409589  1
  C  C6  4  0.45644807  0.35124155  0.89435300  1
  C  C7  4  0.47897176  0.26233347  0.37887134  1
  S  S8  4  0.20900923  0.10870073  0.32507640  1
  S  S9  4  0.27643109  0.35374619  0.36558790  1
  S  S10  4  0.46476302  0.14316942  0.87762896  1
  N  N11  4  0.05186560  0.13605763  -0.13348956  1
  N  N12  4  0.12597169  0.43977008  -0.07756587  1
  N  N13  4  0.39981340  0.41975453  0.90924479  1
  N  N14  4  0.42045134  0.08408534  0.35525209  1
