###############################################################################################
#
# CIF file generated by modified CIFWriter class 
# in pymatgen (v2025.03.10) https://pymatgen.org/
#
###############################################################################################
data_MACE-OFF23(L)_17c3c92c765cf
_symmetry_space_group_name_H-M   Pca2_1
_cell_length_a   18.85028815
_cell_length_b   7.90949946
_cell_length_c   6.88551461
_cell_angle_alpha   90.00000000
_cell_angle_beta   90.00000000
_cell_angle_gamma   90.00000000
_symmetry_Int_Tables_number   29
_chemical_formula_moiety   'C8 N4 S3'
_chemical_formula_sum   'C32 S12 N16'
_cell_volume   1026.60505554
_cell_formula_units_Z   4
loop_
 _symmetry_equiv_pos_site_id
 _symmetry_equiv_pos_as_xyz
  1  'x, y, z'
  2  '-x, -y, z+1/2'
  3  '-x+1/2, y, z+1/2'
  4  'x+1/2, -y, z'
loop_
 _atom_site_type_symbol
 _atom_site_label
 _atom_site_symmetry_multiplicity
 _atom_site_fract_x
 _atom_site_fract_y
 _atom_site_fract_z
 _atom_site_occupancy
  C  C0  4  -0.13924729  0.15704157  0.06340299  1
  C  C1  4  -0.12266008  0.49950175  -0.05778761  1
  C  C2  4  -0.07302973  0.24415912  0.08194555  1
  C  C3  4  -0.06513142  0.40506816  0.02362353  1
  C  C4  4  0.06708047  0.19672840  0.06040519  1
  C  C5  4  0.07510144  0.36465545  -0.00720869  1
  C  C6  4  0.12598123  0.10440585  0.00965823  1
  C  C7  4  0.13580890  -0.06991838  0.05297893  1
  S  S8  4  -0.00548208  0.12244524  0.19198995  1
  S  S9  4  0.01315751  0.52550974  0.03954997  1
  S  S10  4  0.18412151  0.23061960  -0.11297194  1
  N  N11  4  -0.19092086  0.08067142  0.05366582  1
  N  N12  4  -0.16524439  0.58516223  -0.12452102  1
  N  N13  4  0.13307293  0.39750647  -0.10377799  1
  N  N14  4  0.13772254  -0.21128967  0.09054599  1
