###############################################################################################
#
# CIF file generated by modified CIFWriter class 
# in pymatgen (v2025.03.10) https://pymatgen.org/
#
###############################################################################################
data_MACE-OFF23(L)_1aad98968a91537
_symmetry_space_group_name_H-M   P2_1/c
_cell_length_a   11.22728825
_cell_length_b   6.81901408
_cell_length_c   12.49186902
_cell_angle_alpha   90.00000000
_cell_angle_beta   93.65111591
_cell_angle_gamma   90.00000000
_symmetry_Int_Tables_number   14
_chemical_formula_moiety   'C8 N4 S3'
_chemical_formula_sum   'C32 S12 N16'
_cell_volume   954.42433646
_cell_formula_units_Z   4
loop_
 _symmetry_equiv_pos_site_id
 _symmetry_equiv_pos_as_xyz
  1  'x, y, z'
  2  '-x, -y, -z'
  3  '-x, y+1/2, -z+1/2'
  4  'x, -y+1/2, z+1/2'
loop_
 _atom_site_type_symbol
 _atom_site_label
 _atom_site_symmetry_multiplicity
 _atom_site_fract_x
 _atom_site_fract_y
 _atom_site_fract_z
 _atom_site_occupancy
  C  C0  4  -0.02037193  -0.02397771  0.64671636  1
  C  C1  4  0.02253022  0.13451532  0.11062016  1
  C  C2  4  0.09895108  0.03881274  0.63162448  1
  C  C3  4  0.11977167  0.22933116  0.61155985  1
  C  C4  4  0.28968663  -0.06702072  0.53384612  1
  C  C5  4  0.31129537  0.13364208  0.51286028  1
  C  C6  4  0.37464693  0.35140157  -0.07716564  1
  C  C7  4  0.41459995  0.17692930  -0.12570007  1
  S  S8  4  0.20830657  -0.14546834  0.64239739  1
  S  S9  4  0.26143294  0.32669769  0.59026937  1
  S  S10  4  0.40238887  -0.08146342  0.37540310  1
  N  N11  4  -0.11640509  -0.07273912  0.65897559  1
  N  N12  4  -0.05538958  0.02629472  0.11459042  1
  N  N13  4  0.33230232  0.69436013  -0.03149045  1
  N  N14  4  0.44834702  0.03710081  -0.16506322  1
