###############################################################################################
#
# CIF file generated by modified CIFWriter class 
# in pymatgen (v2025.03.10) https://pymatgen.org/
#
###############################################################################################
data_MACE-OFF23(L)_1c5a7b78611ab23
_symmetry_space_group_name_H-M   P-4
_cell_length_a   13.52650029
_cell_length_b   13.52650029
_cell_length_c   6.59821089
_cell_angle_alpha   90.00000000
_cell_angle_beta   90.00000000
_cell_angle_gamma   90.00000000
_symmetry_Int_Tables_number   81
_chemical_formula_moiety   'C8 N4 S3'
_chemical_formula_sum   'C32 S12 N16'
_cell_volume   1207.24964007
_cell_formula_units_Z   4
loop_
 _symmetry_equiv_pos_site_id
 _symmetry_equiv_pos_as_xyz
  1  'x, y, z'
  2  'y, -x, -z'
  3  '-x, -y, z'
  4  '-y, x, -z'
loop_
 _atom_site_type_symbol
 _atom_site_label
 _atom_site_symmetry_multiplicity
 _atom_site_fract_x
 _atom_site_fract_y
 _atom_site_fract_z
 _atom_site_occupancy
  C  C0  4  0.06771787  0.77979228  0.10082428  1
  C  C1  4  0.10809492  0.54536281  0.60872764  1
  C  C2  4  0.12116058  0.83801589  0.48778920  1
  C  C3  4  0.13183111  0.48430043  0.77724072  1
  C  C4  4  0.16252899  0.38744996  0.77578282  1
  C  C5  4  0.17009995  0.79191195  0.15052023  1
  C  C6  4  0.18002262  0.19592815  0.66172241  1
  C  C7  4  0.18684127  0.35926394  0.97779319  1
  S  S8  4  0.13068583  0.52846215  1.02005243  1
  S  S9  4  0.16856795  0.31514737  0.55726554  1
  S  S10  4  0.24023908  0.24694267  1.05284675  1
  N  N11  4  -0.01261883  0.76351380  0.05665455  1
  N  N12  4  0.06459801  0.84993301  0.61496810  1
  N  N13  4  0.09055546  0.59729952  0.47579584  1
  N  N14  4  0.17198532  0.42551488  1.11848080  1
