###############################################################################################
#
# CIF file generated by modified CIFWriter class 
# in pymatgen (v2025.03.10) https://pymatgen.org/
#
###############################################################################################
data_MACE-OFF23(L)_1cda89e9f6433ff
_symmetry_space_group_name_H-M   Cc
_cell_length_a   8.72677131
_cell_length_b   6.85160785
_cell_length_c   15.38832879
_cell_angle_alpha   90.00000000
_cell_angle_beta   78.68651667
_cell_angle_gamma   90.00000000
_symmetry_Int_Tables_number   9
_chemical_formula_moiety   'C8 N4 S3'
_chemical_formula_sum   'C32 S12 N16'
_cell_volume   902.22632954
_cell_formula_units_Z   4
loop_
 _symmetry_equiv_pos_site_id
 _symmetry_equiv_pos_as_xyz
  1  'x, y, z'
  2  'x, -y, z+1/2'
  3  'x+1/2, y+1/2, z'
  4  'x+1/2, -y+1/2, z+1/2'
loop_
 _atom_site_type_symbol
 _atom_site_label
 _atom_site_symmetry_multiplicity
 _atom_site_fract_x
 _atom_site_fract_y
 _atom_site_fract_z
 _atom_site_occupancy
  C  C0  4  -0.11800029  -0.02212496  0.41832147  1
  C  C1  4  -0.03399143  0.35361052  0.37969318  1
  C  C2  4  0.02245667  0.98522466  0.85438738  1
  C  C3  4  0.06274080  0.79896854  0.83451748  1
  C  C4  4  0.25999049  -0.11177224  0.22521692  1
  C  C5  4  0.29953962  0.08660120  0.20401656  1
  C  C6  4  0.42241483  0.90936059  0.63277485  1
  C  C7  4  0.49864999  0.73735561  0.59464861  1
  S  S8  4  0.11313994  -0.20137384  0.31072594  1
  S  S9  4  0.21801243  0.70216246  0.75633368  1
  S  S10  4  0.47625309  1.14116463  0.59928027  1
  N  N11  4  -0.23365059  -0.05064420  0.46657510  1
  N  N12  4  -0.11056681  0.52060051  0.91296373  1
  N  N13  4  0.34382867  -0.24306194  0.17583663  1
  N  N14  4  0.55925637  0.40467854  0.06705837  1
