###############################################################################################
#
# CIF file generated by modified CIFWriter class 
# in pymatgen (v2025.03.10) https://pymatgen.org/
#
###############################################################################################
data_MACE-OFF23(L)_1ed5dc0f42fac43
_symmetry_space_group_name_H-M   P-4
_cell_length_a   11.72889892
_cell_length_b   11.72889892
_cell_length_c   8.69028615
_cell_angle_alpha   90.00000000
_cell_angle_beta   90.00000000
_cell_angle_gamma   90.00000000
_symmetry_Int_Tables_number   81
_chemical_formula_moiety   'C8 N4 S3'
_chemical_formula_sum   'C32 S12 N16'
_cell_volume   1195.49720232
_cell_formula_units_Z   4
loop_
 _symmetry_equiv_pos_site_id
 _symmetry_equiv_pos_as_xyz
  1  'x, y, z'
  2  'y, -x, -z'
  3  '-x, -y, z'
  4  '-y, x, -z'
loop_
 _atom_site_type_symbol
 _atom_site_label
 _atom_site_symmetry_multiplicity
 _atom_site_fract_x
 _atom_site_fract_y
 _atom_site_fract_z
 _atom_site_occupancy
  C  C0  4  0.11278829  0.15240503  0.17104639  1
  C  C1  4  0.14588791  0.44577723  0.93677140  1
  C  C2  4  0.14682486  0.51733262  0.69314516  1
  C  C3  4  0.14801816  0.43610971  1.09980326  1
  C  C4  4  0.15162692  0.54496385  0.85274697  1
  C  C5  4  0.15360348  0.77033441  0.78021677  1
  C  C6  4  0.15384557  0.74491408  0.62962484  1
  C  C7  4  0.15470393  0.83562623  0.51890621  1
  S  S8  4  0.13422614  0.33105075  0.81638363  1
  S  S9  4  0.15236351  0.61207867  0.53692126  1
  S  S10  4  0.15791506  0.67850319  0.93982715  1
  N  N11  4  0.02098354  0.15327683  0.12554965  1
  N  N12  4  0.09529441  0.15552833  0.57443083  1
  N  N13  4  0.13767515  0.40906240  0.66012006  1
  N  N14  4  0.15144401  0.42877805  1.23156244  1
