###############################################################################################
#
# CIF file generated by modified CIFWriter class 
# in pymatgen (v2025.03.10) https://pymatgen.org/
#
###############################################################################################
data_MACE-OFF23(L)_1eec33342767ad4
_symmetry_space_group_name_H-M   P2_1/c
_cell_length_a   14.00707090
_cell_length_b   12.66255869
_cell_length_c   6.63134428
_cell_angle_alpha   90.00000000
_cell_angle_beta   124.69700333
_cell_angle_gamma   90.00000000
_symmetry_Int_Tables_number   14
_chemical_formula_moiety   'C8 N4 S3'
_chemical_formula_sum   'C32 S12 N16'
_cell_volume   967.01679038
_cell_formula_units_Z   4
loop_
 _symmetry_equiv_pos_site_id
 _symmetry_equiv_pos_as_xyz
  1  'x, y, z'
  2  '-x, -y, -z'
  3  '-x, y+1/2, -z+1/2'
  4  'x, -y+1/2, z+1/2'
loop_
 _atom_site_type_symbol
 _atom_site_label
 _atom_site_symmetry_multiplicity
 _atom_site_fract_x
 _atom_site_fract_y
 _atom_site_fract_z
 _atom_site_occupancy
  C  C0  4  0.06788035  0.93368727  0.37136262  1
  C  C1  4  0.12001255  1.00648825  0.29843314  1
  C  C2  4  0.17862182  0.98325669  0.19415488  1
  C  C3  4  0.21797973  1.07821589  0.15147399  1
  C  C4  4  0.34518488  0.62028352  0.70316629  1
  C  C5  4  0.38207114  0.53051524  0.65997813  1
  C  C6  4  0.42111445  0.70809071  0.82671519  1
  C  C7  4  0.49894747  0.02170440  0.75879491  1
  S  S8  4  0.11701011  1.14048113  0.32790733  1
  S  S9  4  0.20289101  0.64189641  0.62154422  1
  S  S10  4  0.29644163  0.41728187  0.51773096  1
  N  N11  4  0.02445598  0.62652470  0.92457966  1
  N  N12  4  0.19199972  1.16555876  0.21427833  1
  N  N13  4  0.40296994  0.01406672  0.68760219  1
  N  N14  4  0.47605765  0.78193377  0.92345525  1
