###############################################################################################
#
# CIF file generated by modified CIFWriter class 
# in pymatgen (v2025.03.10) https://pymatgen.org/
#
###############################################################################################
data_MACE-OFF23(L)_1f4261dfbab80b6
_symmetry_space_group_name_H-M   Pna2_1
_cell_length_a   17.95227401
_cell_length_b   5.23987979
_cell_length_c   10.42214831
_cell_angle_alpha   90.00000000
_cell_angle_beta   90.00000000
_cell_angle_gamma   90.00000000
_symmetry_Int_Tables_number   33
_chemical_formula_moiety   'C8 N4 S3'
_chemical_formula_sum   'C32 S12 N16'
_cell_volume   980.38812181
_cell_formula_units_Z   4
loop_
 _symmetry_equiv_pos_site_id
 _symmetry_equiv_pos_as_xyz
  1  'x, y, z'
  2  '-x, -y, z+1/2'
  3  '-x+1/2, y+1/2, z+1/2'
  4  'x+1/2, -y+1/2, z'
loop_
 _atom_site_type_symbol
 _atom_site_label
 _atom_site_symmetry_multiplicity
 _atom_site_fract_x
 _atom_site_fract_y
 _atom_site_fract_z
 _atom_site_occupancy
  C  C0  4  0.01622305  0.48356823  0.56255809  1
  C  C1  4  0.03933736  0.08417204  0.74290903  1
  C  C2  4  0.07972524  0.31939180  0.55373446  1
  C  C3  4  0.09067345  0.13401314  0.64064306  1
  C  C4  4  0.19971158  1.22203532  -0.07584353  1
  C  C5  4  0.21219039  1.00272381  0.00155326  1
  C  C6  4  0.22459313  0.35563345  0.51098230  1
  C  C7  4  0.23705479  0.16013803  0.60241951  1
  S  S8  4  0.14119323  0.38738589  0.42552406  1
  S  S9  4  0.14555926  0.88516077  0.10248046  1
  S  S10  4  0.16903821  -0.06825234  0.64290322  1
  N  N11  4  -0.03380854  0.61890108  0.57041073  1
  N  N12  4  0.00079118  0.03000814  0.82647423  1
  N  N13  4  0.18851754  1.40008735  -0.13710300  1
  N  N14  4  0.19746502  0.65306161  0.15650648  1
