###############################################################################################
#
# CIF file generated by modified CIFWriter class 
# in pymatgen (v2025.03.10) https://pymatgen.org/
#
###############################################################################################
data_MACE-OFF23(L)_1fb6b81c820a4b3
_symmetry_space_group_name_H-M   P2_1/c
_cell_length_a   6.83489556
_cell_length_b   10.43528598
_cell_length_c   12.94445492
_cell_angle_alpha   90.00000000
_cell_angle_beta   92.27613040
_cell_angle_gamma   90.00000000
_symmetry_Int_Tables_number   14
_chemical_formula_moiety   'C8 N4 S3'
_chemical_formula_sum   'C32 S12 N16'
_cell_volume   922.52304548
_cell_formula_units_Z   4
loop_
 _symmetry_equiv_pos_site_id
 _symmetry_equiv_pos_as_xyz
  1  'x, y, z'
  2  '-x, -y, -z'
  3  '-x, y+1/2, -z+1/2'
  4  'x, -y+1/2, z+1/2'
loop_
 _atom_site_type_symbol
 _atom_site_label
 _atom_site_symmetry_multiplicity
 _atom_site_fract_x
 _atom_site_fract_y
 _atom_site_fract_z
 _atom_site_occupancy
  C  C0  4  0.18628239  0.56457664  0.30655050  1
  C  C1  4  0.27930062  0.81809207  1.09944851  1
  C  C2  4  0.31308680  0.65798358  0.49234496  1
  C  C3  4  0.34581236  0.19058454  -0.03545059  1
  C  C4  4  0.38406515  0.94219857  0.77726734  1
  C  C5  4  0.38918551  0.49481180  0.18416361  1
  C  C6  4  0.44257167  -0.03193427  0.37348792  1
  C  C7  4  0.49945157  0.84248118  0.96229483  1
  S  S8  4  0.09700746  0.63567959  0.41836013  1
  S  S9  4  0.15693620  1.04401297  0.64123678  1
  S  S10  4  0.41145741  0.12781863  0.16113714  1
  N  N11  4  0.05556479  0.98520665  0.74268241  1
  N  N12  4  0.21833255  0.28066324  0.40871142  1
  N  N13  4  0.25705566  0.69844860  0.68579577  1
  N  N14  4  0.30885266  -0.05571483  0.42092172  1
