###############################################################################################
#
# CIF file generated by modified CIFWriter class 
# in pymatgen (v2025.03.10) https://pymatgen.org/
#
###############################################################################################
data_MACE-OFF23(L)_27833e83823fb23
_symmetry_space_group_name_H-M   P2_12_12
_cell_length_a   9.59682594
_cell_length_b   13.78839379
_cell_length_c   8.19251492
_cell_angle_alpha   90.00000000
_cell_angle_beta   90.00000000
_cell_angle_gamma   90.00000000
_symmetry_Int_Tables_number   18
_chemical_formula_moiety   'C8 N4 S3'
_chemical_formula_sum   'C32 S12 N16'
_cell_volume   1084.07302366
_cell_formula_units_Z   4
loop_
 _symmetry_equiv_pos_site_id
 _symmetry_equiv_pos_as_xyz
  1  'x, y, z'
  2  '-x, -y, z'
  3  'x+1/2, -y+1/2, -z'
  4  '-x+1/2, y+1/2, -z'
loop_
 _atom_site_type_symbol
 _atom_site_label
 _atom_site_symmetry_multiplicity
 _atom_site_fract_x
 _atom_site_fract_y
 _atom_site_fract_z
 _atom_site_occupancy
  C  C0  4  -0.07676528  0.80276868  0.66336182  1
  C  C1  4  -0.04728780  0.81919911  0.83125668  1
  C  C2  4  0.05820179  0.86687928  1.06696255  1
  C  C3  4  0.06722281  0.86604636  0.89367652  1
  C  C4  4  0.13340324  0.56131796  0.17063034  1
  C  C5  4  0.14249360  0.56087864  -0.15917173  1
  C  C6  4  0.21619496  0.48875234  0.09082154  1
  C  C7  4  0.22254315  0.48935248  -0.07333570  1
  S  S8  4  -0.14930559  0.77896391  0.98788802  1
  S  S9  4  0.18304801  0.91293525  1.20329638  1
  S  S10  4  0.20373193  0.90857191  0.77257635  1
  N  N11  4  -0.09741785  0.79054598  0.52675097  1
  N  N12  4  -0.05170870  0.82591908  1.13060414  1
  N  N13  4  0.06691938  0.62078396  0.23044162  1
  N  N14  4  0.07539124  0.61846858  -0.22279951  1
