###############################################################################################
#
# CIF file generated by modified CIFWriter class 
# in pymatgen (v2025.03.10) https://pymatgen.org/
#
###############################################################################################
data_MACE-OFF23(L)_2883c6cc078a81f
_symmetry_space_group_name_H-M   P2_1/c
_cell_length_a   7.48150374
_cell_length_b   12.98417066
_cell_length_c   10.08800967
_cell_angle_alpha   90.00000000
_cell_angle_beta   91.35228870
_cell_angle_gamma   90.00000000
_symmetry_Int_Tables_number   14
_chemical_formula_moiety   'C8 N4 S3'
_chemical_formula_sum   'C32 S12 N16'
_cell_volume   979.68764150
_cell_formula_units_Z   4
loop_
 _symmetry_equiv_pos_site_id
 _symmetry_equiv_pos_as_xyz
  1  'x, y, z'
  2  '-x, -y, -z'
  3  '-x, y+1/2, -z+1/2'
  4  'x, -y+1/2, z+1/2'
loop_
 _atom_site_type_symbol
 _atom_site_label
 _atom_site_symmetry_multiplicity
 _atom_site_fract_x
 _atom_site_fract_y
 _atom_site_fract_z
 _atom_site_occupancy
  C  C0  4  0.03512968  0.28005525  0.76524893  1
  C  C1  4  0.04764759  0.49044978  0.83364602  1
  C  C2  4  0.20005939  0.33603451  0.76564026  1
  C  C3  4  0.20780850  0.06369597  0.30003373  1
  C  C4  4  0.32724899  0.73190605  0.99987827  1
  C  C5  4  0.35624311  0.67106749  0.43958077  1
  C  C6  4  0.46815503  0.54551548  0.30792391  1
  C  C7  4  0.47963770  0.65087039  0.34480225  1
  S  S8  4  0.23570106  0.56206138  0.47022119  1
  S  S9  4  0.38091306  0.25681133  0.72308954  1
  S  S10  4  0.40106222  -0.01290564  0.31278618  1
  N  N11  4  -0.09092714  0.22975507  0.76427526  1
  N  N12  4  -0.07761467  -0.03603594  0.36068807  1
  N  N13  4  0.30540920  0.84783196  0.54576513  1
  N  N14  4  0.34829866  1.00955509  0.86749571  1
