###############################################################################################
#
# CIF file generated by modified CIFWriter class 
# in pymatgen (v2025.03.10) https://pymatgen.org/
#
###############################################################################################
data_MACE-OFF23(L)_2a073ef56a460e0
_symmetry_space_group_name_H-M   P2_1/c
_cell_length_a   7.08722570
_cell_length_b   6.97732906
_cell_length_c   18.84349291
_cell_angle_alpha   90.00000000
_cell_angle_beta   90.13842541
_cell_angle_gamma   90.00000000
_symmetry_Int_Tables_number   14
_chemical_formula_moiety   'C8 N4 S3'
_chemical_formula_sum   'C32 S12 N16'
_cell_volume   931.80623044
_cell_formula_units_Z   4
loop_
 _symmetry_equiv_pos_site_id
 _symmetry_equiv_pos_as_xyz
  1  'x, y, z'
  2  '-x, -y, -z'
  3  '-x, y+1/2, -z+1/2'
  4  'x, -y+1/2, z+1/2'
loop_
 _atom_site_type_symbol
 _atom_site_label
 _atom_site_symmetry_multiplicity
 _atom_site_fract_x
 _atom_site_fract_y
 _atom_site_fract_z
 _atom_site_occupancy
  C  C0  4  0.07417123  0.63371456  0.60430805  1
  C  C1  4  0.07941720  0.84726055  0.73029622  1
  C  C2  4  0.24840295  0.79772781  0.13344728  1
  C  C3  4  0.25148900  0.81037580  0.69258471  1
  C  C4  4  0.27452189  0.34805701  1.02686286  1
  C  C5  4  0.30918395  0.42525939  0.95836273  1
  C  C6  4  0.42136713  0.03351222  0.34652458  1
  C  C7  4  0.42374668  0.34743172  0.90752536  1
  S  S8  4  0.20923529  -0.13136859  0.42672246  1
  S  S9  4  0.45212989  0.86738127  0.08611089  1
  S  S10  4  0.45584719  0.59118268  0.23135953  1
  N  N11  4  -0.06398494  0.91758418  0.07869794  1
  N  N12  4  -0.05776224  0.87144976  0.76126664  1
  N  N13  4  0.25172558  0.21571606  0.58242418  1
  N  N14  4  0.31643097  -0.12013315  0.34993030  1
