###############################################################################################
#
# CIF file generated by modified CIFWriter class 
# in pymatgen (v2025.03.10) https://pymatgen.org/
#
###############################################################################################
data_MACE-OFF23(L)_2e7d7b3d40438d3
_symmetry_space_group_name_H-M   P4
_cell_length_a   16.48812900
_cell_length_b   16.48812900
_cell_length_c   3.77641269
_cell_angle_alpha   90.00000000
_cell_angle_beta   90.00000000
_cell_angle_gamma   90.00000000
_symmetry_Int_Tables_number   75
_chemical_formula_moiety   'C8 N4 S3'
_chemical_formula_sum   'C32 S12 N16'
_cell_volume   1026.64950451
_cell_formula_units_Z   4
loop_
 _symmetry_equiv_pos_site_id
 _symmetry_equiv_pos_as_xyz
  1  'x, y, z'
  2  '-y, x, z'
  3  '-x, -y, z'
  4  'y, -x, z'
loop_
 _atom_site_type_symbol
 _atom_site_label
 _atom_site_symmetry_multiplicity
 _atom_site_fract_x
 _atom_site_fract_y
 _atom_site_fract_z
 _atom_site_occupancy
  C  C0  4  0.00877465  0.75463088  0.74194596  1
  C  C1  4  0.05716356  0.69231987  0.59015596  1
  C  C2  4  0.13353096  0.69868603  0.44714522  1
  C  C3  4  0.16213428  0.61995665  0.35914795  1
  C  C4  4  0.19140531  0.33318616  0.67766469  1
  C  C5  4  0.24770751  0.28459657  0.48156767  1
  C  C6  4  0.31308820  0.67772261  0.40643793  1
  C  C7  4  0.34532887  0.39243957  0.52432234  1
  S  S8  4  0.02730115  0.59297892  0.58653220  1
  S  S9  4  0.18703728  0.78829222  0.37124615  1
  S  S10  4  0.25882663  0.60093170  0.18240481  1
  N  N11  4  -0.02978537  0.80294270  0.88219853  1
  N  N12  4  0.11273859  0.55957866  0.41979978  1
  N  N13  4  0.14712802  0.37032429  0.84761340  1
  N  N14  4  0.36335685  0.45543357  0.62724749  1
