###############################################################################################
#
# CIF file generated by modified CIFWriter class 
# in pymatgen (v2025.03.10) https://pymatgen.org/
#
###############################################################################################
data_MACE-OFF23(L)_3bba9fb96961ac4
_symmetry_space_group_name_H-M   P2_12_12_1
_cell_length_a   7.00532189
_cell_length_b   21.65089567
_cell_length_c   6.47682003
_cell_angle_alpha   90.00000000
_cell_angle_beta   90.00000000
_cell_angle_gamma   90.00000000
_symmetry_Int_Tables_number   19
_chemical_formula_moiety   'C8 N4 S3'
_chemical_formula_sum   'C32 S12 N16'
_cell_volume   982.34896613
_cell_formula_units_Z   4
loop_
 _symmetry_equiv_pos_site_id
 _symmetry_equiv_pos_as_xyz
  1  'x, y, z'
  2  '-x, y+1/2, -z+1/2'
  3  '-x+1/2, -y, z+1/2'
  4  'x+1/2, -y+1/2, -z'
loop_
 _atom_site_type_symbol
 _atom_site_label
 _atom_site_symmetry_multiplicity
 _atom_site_fract_x
 _atom_site_fract_y
 _atom_site_fract_z
 _atom_site_occupancy
  C  C0  4  -0.14549851  0.75934659  0.39186091  1
  C  C1  4  -0.06465355  0.81366426  0.30063205  1
  C  C2  4  -0.04955322  0.05978935  0.55273252  1
  C  C3  4  0.02000416  0.81045242  0.11482804  1
  C  C4  4  0.02519959  0.75276118  0.00675396  1
  C  C5  4  0.08648103  0.06662678  0.71412072  1
  C  C6  4  0.14850454  0.91018458  0.40103833  1
  C  C7  4  0.23748526  0.90578282  0.20479341  1
  S  S8  4  -0.08088363  0.88078785  0.45233123  1
  S  S9  4  0.04921384  0.03796396  0.95681670  1
  S  S10  4  0.13128816  0.87259331  -0.01266825  1
  N  N11  4  -0.21001808  0.71603305  0.46644886  1
  N  N12  4  -0.16106344  0.05330068  0.42462460  1
  N  N13  4  0.02933298  0.70673209  -0.08112595  1
  N  N14  4  0.24490960  0.93793854  0.54616717  1
