###############################################################################################
#
# CIF file generated by modified CIFWriter class 
# in pymatgen (v2025.03.10) https://pymatgen.org/
#
###############################################################################################
data_MACE-OFF23(L)_3d436fda3d0632c
_symmetry_space_group_name_H-M   P-4
_cell_length_a   11.78278488
_cell_length_b   11.78278488
_cell_length_c   7.85809280
_cell_angle_alpha   90.00000000
_cell_angle_beta   90.00000000
_cell_angle_gamma   90.00000000
_symmetry_Int_Tables_number   81
_chemical_formula_moiety   'C8 N4 S3'
_chemical_formula_sum   'C32 S12 N16'
_cell_volume   1090.97060947
_cell_formula_units_Z   4
loop_
 _symmetry_equiv_pos_site_id
 _symmetry_equiv_pos_as_xyz
  1  'x, y, z'
  2  'y, -x, -z'
  3  '-x, -y, z'
  4  '-y, x, -z'
loop_
 _atom_site_type_symbol
 _atom_site_label
 _atom_site_symmetry_multiplicity
 _atom_site_fract_x
 _atom_site_fract_y
 _atom_site_fract_z
 _atom_site_occupancy
  C  C0  4  0.02028384  0.85781322  0.28498974  1
  C  C1  4  0.10763031  0.39181650  1.15205427  1
  C  C2  4  0.12099693  0.38598315  0.97131019  1
  C  C3  4  0.12815598  0.81518654  0.33408485  1
  C  C4  4  0.15524379  0.23454660  0.72204910  1
  C  C5  4  0.18239500  0.46453969  0.88818514  1
  C  C6  4  0.22355015  0.31586056  0.63746579  1
  C  C7  4  0.23010825  0.56002134  0.97603709  1
  S  S8  4  0.05244804  0.26941427  0.87342644  1
  S  S9  4  0.13901781  0.70936860  0.48204042  1
  S  S10  4  0.21242807  0.46307282  0.66911149  1
  N  N11  4  -0.06932299  0.88773001  0.24938643  1
  N  N12  4  0.09649172  0.39462626  1.29708617  1
  N  N13  4  0.26581204  0.63968701  1.04104377  1
  N  N14  4  0.27724408  0.70207001  0.47091436  1
