###############################################################################################
#
# CIF file generated by modified CIFWriter class 
# in pymatgen (v2025.03.10) https://pymatgen.org/
#
###############################################################################################
data_MACE-OFF23(L)_3f7bd8a77523dac
_symmetry_space_group_name_H-M   Pca2_1
_cell_length_a   15.49613699
_cell_length_b   6.32715481
_cell_length_c   11.18190079
_cell_angle_alpha   90.00000000
_cell_angle_beta   90.00000000
_cell_angle_gamma   90.00000000
_symmetry_Int_Tables_number   29
_chemical_formula_moiety   'C8 N4 S3'
_chemical_formula_sum   'C32 S12 N16'
_cell_volume   1096.34576333
_cell_formula_units_Z   4
loop_
 _symmetry_equiv_pos_site_id
 _symmetry_equiv_pos_as_xyz
  1  'x, y, z'
  2  '-x, -y, z+1/2'
  3  '-x+1/2, y, z+1/2'
  4  'x+1/2, -y, z'
loop_
 _atom_site_type_symbol
 _atom_site_label
 _atom_site_symmetry_multiplicity
 _atom_site_fract_x
 _atom_site_fract_y
 _atom_site_fract_z
 _atom_site_occupancy
  C  C0  4  -0.02882597  0.57840631  -0.06777132  1
  C  C1  4  0.05631276  0.60971251  -0.02205327  1
  C  C2  4  0.06689965  0.94126734  0.34662163  1
  C  C3  4  0.11213754  0.67460303  -0.22115528  1
  C  C4  4  0.12266351  0.65837978  -0.09428138  1
  C  C5  4  0.12672283  0.95143741  0.25032893  1
  C  C6  4  0.13146809  0.80970736  0.15776791  1
  C  C7  4  0.20050924  0.86598295  0.08097264  1
  S  S8  4  0.06524404  0.59023461  0.13477590  1
  S  S9  4  0.20688783  1.13615256  0.23397854  1
  S  S10  4  0.22834207  0.71026392  -0.04320593  1
  N  N11  4  -0.09800784  0.55806048  -0.10238002  1
  N  N12  4  0.01727394  0.92485981  0.42242252  1
  N  N13  4  0.10704046  0.68626188  -0.32344302  1
  N  N14  4  0.24434574  1.03445480  0.10977382  1
