###############################################################################################
#
# CIF file generated by modified CIFWriter class 
# in pymatgen (v2025.03.10) https://pymatgen.org/
#
###############################################################################################
data_MACE-OFF23(L)_40065409d102a4f
_symmetry_space_group_name_H-M   P2_12_12
_cell_length_a   8.67353749
_cell_length_b   21.95993611
_cell_length_c   5.24922110
_cell_angle_alpha   90.00000000
_cell_angle_beta   90.00000000
_cell_angle_gamma   90.00000000
_symmetry_Int_Tables_number   18
_chemical_formula_moiety   'C8 N4 S3'
_chemical_formula_sum   'C32 S12 N16'
_cell_volume   999.82087138
_cell_formula_units_Z   4
loop_
 _symmetry_equiv_pos_site_id
 _symmetry_equiv_pos_as_xyz
  1  'x, y, z'
  2  '-x, -y, z'
  3  'x+1/2, -y+1/2, -z'
  4  '-x+1/2, y+1/2, -z'
loop_
 _atom_site_type_symbol
 _atom_site_label
 _atom_site_symmetry_multiplicity
 _atom_site_fract_x
 _atom_site_fract_y
 _atom_site_fract_z
 _atom_site_occupancy
  C  C0  4  -0.03208006  0.23053754  0.53499148  1
  C  C1  4  0.03644137  0.19112027  0.72097710  1
  C  C2  4  0.08082952  0.57097494  -0.36483418  1
  C  C3  4  0.12197234  0.21629191  0.90650221  1
  C  C4  4  0.13962484  0.07837062  0.84476548  1
  C  C5  4  0.14184873  0.28112488  0.92117205  1
  C  C6  4  0.18326765  0.56125950  -0.15686224  1
  C  C7  4  0.22586729  0.10497804  1.04606127  1
  S  S8  4  -0.00552091  0.11395921  0.66342614  1
  S  S9  4  0.20952943  0.49321627  -0.00530438  1
  S  S10  4  0.22573572  0.18028622  1.14942990  1
  N  N11  4  -0.08514329  0.26164370  0.38274075  1
  N  N12  4  -0.00130717  0.58104847  -0.53120867  1
  N  N13  4  0.16284664  0.33233145  0.94658439  1
  N  N14  4  0.16609792  0.02075861  0.80161767  1
