###############################################################################################
#
# CIF file generated by modified CIFWriter class 
# in pymatgen (v2025.03.10) https://pymatgen.org/
#
###############################################################################################
data_MACE-OFF23(L)_429d34c0efa2cc6
_symmetry_space_group_name_H-M   P2_1/c
_cell_length_a   9.25989445
_cell_length_b   11.46881984
_cell_length_c   9.67299463
_cell_angle_alpha   90.00000000
_cell_angle_beta   70.07153190
_cell_angle_gamma   90.00000000
_symmetry_Int_Tables_number   14
_chemical_formula_moiety   'C8 N4 S3'
_chemical_formula_sum   'C32 S12 N16'
_cell_volume   965.75839525
_cell_formula_units_Z   4
loop_
 _symmetry_equiv_pos_site_id
 _symmetry_equiv_pos_as_xyz
  1  'x, y, z'
  2  '-x, -y, -z'
  3  '-x, y+1/2, -z+1/2'
  4  'x, -y+1/2, z+1/2'
loop_
 _atom_site_type_symbol
 _atom_site_label
 _atom_site_symmetry_multiplicity
 _atom_site_fract_x
 _atom_site_fract_y
 _atom_site_fract_z
 _atom_site_occupancy
  C  C0  4  0.15775356  0.05236555  0.75630940  1
  C  C1  4  0.16033920  0.53088918  0.14623832  1
  C  C2  4  0.24044062  0.18060316  0.89252087  1
  C  C3  4  0.28575678  0.40358216  0.27864235  1
  C  C4  4  0.31124272  0.50569863  0.70897684  1
  C  C5  4  0.40315895  0.66481011  0.47790588  1
  C  C6  4  0.43714978  0.58307359  0.69379398  1
  C  C7  4  0.48010009  0.66158651  0.58384045  1
  S  S8  4  -0.00191606  0.11935989  0.87398056  1
  S  S9  4  0.37052647  0.23665625  0.44748262  1
  S  S10  4  0.47495742  0.43685150  0.17348151  1
  N  N11  4  0.09364281  0.30029438  0.45317317  1
  N  N12  4  0.17425180  -0.09621853  0.55254816  1
  N  N13  4  0.21098347  0.44283149  0.72157276  1
  N  N14  4  0.34616895  0.66563502  0.38949766  1
