###############################################################################################
#
# CIF file generated by modified CIFWriter class 
# in pymatgen (v2025.03.10) https://pymatgen.org/
#
###############################################################################################
data_MACE-OFF23(L)_42ecd60d5c7a45
_symmetry_space_group_name_H-M   P2_1/c
_cell_length_a   8.69847169
_cell_length_b   9.69675859
_cell_length_c   12.14630269
_cell_angle_alpha   90.00000000
_cell_angle_beta   81.14349225
_cell_angle_gamma   90.00000000
_symmetry_Int_Tables_number   14
_chemical_formula_moiety   'C8 N4 S3'
_chemical_formula_sum   'C32 S12 N16'
_cell_volume   1012.28880988
_cell_formula_units_Z   4
loop_
 _symmetry_equiv_pos_site_id
 _symmetry_equiv_pos_as_xyz
  1  'x, y, z'
  2  '-x, -y, -z'
  3  '-x, y+1/2, -z+1/2'
  4  'x, -y+1/2, z+1/2'
loop_
 _atom_site_type_symbol
 _atom_site_label
 _atom_site_symmetry_multiplicity
 _atom_site_fract_x
 _atom_site_fract_y
 _atom_site_fract_z
 _atom_site_occupancy
  C  C0  4  -0.23115037  0.83858031  1.02219840  1
  C  C1  4  -0.16342301  0.44984216  0.37317496  1
  C  C2  4  -0.09156643  0.66806658  0.44244261  1
  C  C3  4  -0.05725531  0.93642435  0.86986990  1
  C  C4  4  0.20099298  0.76337984  0.39117005  1
  C  C5  4  0.23899092  0.84723938  0.81590119  1
  C  C6  4  0.33522374  0.82808688  0.40928270  1
  C  C7  4  0.33637863  0.55548323  0.98009223  1
  S  S8  4  0.01651540  0.81924142  0.45093848  1
  S  S9  4  0.10324411  0.95460586  0.76435838  1
  S  S10  4  0.49108885  0.75004425  0.83161240  1
  N  N11  4  -0.34249268  0.65522653  0.58631660  1
  N  N12  4  -0.24675880  1.14211932  0.87402456  1
  N  N13  4  0.32322186  0.46136027  1.03818490  1
  N  N14  4  0.38645860  0.86587541  0.77969099  1
