###############################################################################################
#
# CIF file generated by modified CIFWriter class 
# in pymatgen (v2025.03.10) https://pymatgen.org/
#
###############################################################################################
data_MACE-OFF23(L)_4b9dbc2201b1a28
_symmetry_space_group_name_H-M   Pna2_1
_cell_length_a   6.10545496
_cell_length_b   18.50374981
_cell_length_c   8.43211777
_cell_angle_alpha   90.00000000
_cell_angle_beta   90.00000000
_cell_angle_gamma   90.00000000
_symmetry_Int_Tables_number   33
_chemical_formula_moiety   'C8 N4 S3'
_chemical_formula_sum   'C32 S12 N16'
_cell_volume   952.60847961
_cell_formula_units_Z   4
loop_
 _symmetry_equiv_pos_site_id
 _symmetry_equiv_pos_as_xyz
  1  'x, y, z'
  2  '-x, -y, z+1/2'
  3  '-x+1/2, y+1/2, z+1/2'
  4  'x+1/2, -y+1/2, z'
loop_
 _atom_site_type_symbol
 _atom_site_label
 _atom_site_symmetry_multiplicity
 _atom_site_fract_x
 _atom_site_fract_y
 _atom_site_fract_z
 _atom_site_occupancy
  C  C0  4  -0.04122935  0.84554145  0.56506999  1
  C  C1  4  -0.01498780  0.65093116  -0.08334287  1
  C  C2  4  0.12021844  0.90083072  0.58532655  1
  C  C3  4  0.12580935  1.04197793  0.64425608  1
  C  C4  4  0.13869271  0.35386394  -0.11893397  1
  C  C5  4  0.15906797  0.61835800  0.00286915  1
  C  C6  4  0.17820695  0.54831728  0.05542668  1
  C  C7  4  0.19564471  0.40600281  -0.00065315  1
  S  S8  4  -0.00059550  0.47562812  0.02619855  1
  S  S9  4  0.05016677  0.96157282  0.73879873  1
  S  S10  4  0.12179387  1.16770171  0.56700291  1
  N  N11  4  -0.18598786  0.80595773  0.56175436  1
  N  N12  4  -0.15464159  0.67942958  -0.14966647  1
  N  N13  4  0.00381588  1.09954460  0.65704403  1
  N  N14  4  0.08314097  0.31329429  -0.21345709  1
