###############################################################################################
#
# CIF file generated by modified CIFWriter class 
# in pymatgen (v2025.03.10) https://pymatgen.org/
#
###############################################################################################
data_MACE-OFF23(L)_4f1ec1aa7cefa3a
_symmetry_space_group_name_H-M   P2_12_12
_cell_length_a   6.54022509
_cell_length_b   16.87320939
_cell_length_c   9.62236754
_cell_angle_alpha   90.00000000
_cell_angle_beta   90.00000000
_cell_angle_gamma   90.00000000
_symmetry_Int_Tables_number   18
_chemical_formula_moiety   'C8 N4 S3'
_chemical_formula_sum   'C32 S12 N16'
_cell_volume   1061.87240076
_cell_formula_units_Z   4
loop_
 _symmetry_equiv_pos_site_id
 _symmetry_equiv_pos_as_xyz
  1  'x, y, z'
  2  '-x, -y, z'
  3  'x+1/2, -y+1/2, -z'
  4  '-x+1/2, y+1/2, -z'
loop_
 _atom_site_type_symbol
 _atom_site_label
 _atom_site_symmetry_multiplicity
 _atom_site_fract_x
 _atom_site_fract_y
 _atom_site_fract_z
 _atom_site_occupancy
  C  C0  4  0.24443811  0.27792101  0.62541247  1
  C  C1  4  0.24482200  0.11486682  0.61680065  1
  C  C2  4  0.24580871  0.23418121  0.75344428  1
  C  C3  4  0.24628412  0.15454273  0.74849682  1
  C  C4  4  0.24649176  0.23054161  1.03671507  1
  C  C5  4  0.24734525  0.11681721  1.16390869  1
  C  C6  4  0.24744280  0.14631347  1.03082492  1
  C  C7  4  0.24882275  0.03508083  1.19929649  1
  S  S8  4  0.24599796  0.19294651  1.28124430  1
  S  S9  4  0.24667012  0.29777719  0.89780938  1
  S  S10  4  0.24869796  0.08535729  0.88453608  1
  N  N11  4  0.24341847  0.31303243  0.52325820  1
  N  N12  4  0.24354252  0.08122526  0.51316488  1
  N  N13  4  0.24580657  0.26158151  1.16090574  1
  N  N14  4  0.24974733  0.46835192  -0.22224138  1
