###############################################################################################
#
# CIF file generated by modified CIFWriter class 
# in pymatgen (v2025.03.10) https://pymatgen.org/
#
###############################################################################################
data_MACE-OFF23(L)_4f29902e5f3b3a6
_symmetry_space_group_name_H-M   P2/c
_cell_length_a   12.36896385
_cell_length_b   14.82024035
_cell_length_c   6.08416717
_cell_angle_alpha   90.00000000
_cell_angle_beta   88.51763152
_cell_angle_gamma   90.00000000
_symmetry_Int_Tables_number   13
_chemical_formula_moiety   'C8 N4 S3'
_chemical_formula_sum   'C32 S12 N16'
_cell_volume   1114.92162093
_cell_formula_units_Z   4
loop_
 _symmetry_equiv_pos_site_id
 _symmetry_equiv_pos_as_xyz
  1  'x, y, z'
  2  '-x, -y, -z'
  3  '-x, y, -z+1/2'
  4  'x, -y, z+1/2'
loop_
 _atom_site_type_symbol
 _atom_site_label
 _atom_site_symmetry_multiplicity
 _atom_site_fract_x
 _atom_site_fract_y
 _atom_site_fract_z
 _atom_site_occupancy
  C  C0  4  0.16551917  0.18785745  0.82746347  1
  C  C1  4  0.17254464  0.60436029  -0.09762107  1
  C  C2  4  0.20651999  0.66359420  0.07381415  1
  C  C3  4  0.25803927  0.21040618  0.95156366  1
  C  C4  4  0.26246490  0.15319214  1.12847714  1
  C  C5  4  0.29197643  0.64253902  0.19574373  1
  C  C6  4  0.33830110  0.84425699  0.79995983  1
  C  C7  4  0.34582100  0.44188782  0.65850652  1
  S  S8  4  0.12341715  0.24011823  0.58510547  1
  S  S9  4  0.15669650  0.07863482  1.12620954  1
  S  S10  4  0.35345027  0.70518647  0.40250049  1
  N  N11  4  0.10647288  0.12106462  0.90259218  1
  N  N12  4  0.14274405  0.43828683  0.25868667  1
  N  N13  4  0.38942204  0.50939344  0.63426770  1
  N  N14  4  0.39733160  0.84047588  0.94240151  1
