###############################################################################################
#
# CIF file generated by modified CIFWriter class 
# in pymatgen (v2025.03.10) https://pymatgen.org/
#
###############################################################################################
data_MACE-OFF23(L)_5039a563c4e975b
_symmetry_space_group_name_H-M   Pna2_1
_cell_length_a   7.46873896
_cell_length_b   9.95090315
_cell_length_c   13.10736531
_cell_angle_alpha   90.00000000
_cell_angle_beta   90.00000000
_cell_angle_gamma   90.00000000
_symmetry_Int_Tables_number   33
_chemical_formula_moiety   'C8 N4 S3'
_chemical_formula_sum   'C32 S12 N16'
_cell_volume   974.14853953
_cell_formula_units_Z   4
loop_
 _symmetry_equiv_pos_site_id
 _symmetry_equiv_pos_as_xyz
  1  'x, y, z'
  2  '-x, -y, z+1/2'
  3  '-x+1/2, y+1/2, z+1/2'
  4  'x+1/2, -y+1/2, z'
loop_
 _atom_site_type_symbol
 _atom_site_label
 _atom_site_symmetry_multiplicity
 _atom_site_fract_x
 _atom_site_fract_y
 _atom_site_fract_z
 _atom_site_occupancy
  C  C0  4  -0.07893334  -0.06581351  0.29003113  1
  C  C1  4  -0.03231143  -0.06740489  0.18479627  1
  C  C2  4  0.12936936  0.58165433  0.38725091  1
  C  C3  4  0.13876714  0.68429304  0.69330414  1
  C  C4  4  0.21356293  0.07340888  0.33335676  1
  C  C5  4  0.21360489  0.67568565  0.89842584  1
  C  C6  4  0.23955723  0.58431310  0.29881776  1
  C  C7  4  0.24474813  0.57632143  0.73342215  1
  S  S8  4  0.07306910  -0.04743089  0.39035211  1
  S  S9  4  0.14883127  0.60777705  0.18006250  1
  S  S10  4  0.18653435  -0.04077223  0.14063181  1
  N  N11  4  -0.16135860  -0.08843048  0.11955418  1
  N  N12  4  0.03313159  0.57727793  0.45558839  1
  N  N13  4  0.05735788  0.77226663  0.66095088  1
  N  N14  4  0.14507742  0.75951924  0.94411222  1
