###############################################################################################
#
# CIF file generated by modified CIFWriter class 
# in pymatgen (v2025.03.10) https://pymatgen.org/
#
###############################################################################################
data_MACE-OFF23(L)_50897418e6cfa60
_symmetry_space_group_name_H-M   P2_1/c
_cell_length_a   4.08541021
_cell_length_b   11.24931152
_cell_length_c   24.16036055
_cell_angle_alpha   90.00000000
_cell_angle_beta   58.82735117
_cell_angle_gamma   90.00000000
_symmetry_Int_Tables_number   14
_chemical_formula_moiety   'C8 N4 S3'
_chemical_formula_sum   'C32 S12 N16'
_cell_volume   950.03939278
_cell_formula_units_Z   4
loop_
 _symmetry_equiv_pos_site_id
 _symmetry_equiv_pos_as_xyz
  1  'x, y, z'
  2  '-x, -y, -z'
  3  '-x, y+1/2, -z+1/2'
  4  'x, -y+1/2, z+1/2'
loop_
 _atom_site_type_symbol
 _atom_site_label
 _atom_site_symmetry_multiplicity
 _atom_site_fract_x
 _atom_site_fract_y
 _atom_site_fract_z
 _atom_site_occupancy
  C  C0  4  -0.49699926  0.80300303  0.75517735  1
  C  C1  4  -0.17605747  0.78482369  0.69087003  1
  C  C2  4  0.06153059  0.97811197  0.69769918  1
  C  C3  4  0.08581364  0.62788704  0.16268613  1
  C  C4  4  0.10729011  0.82786486  0.07564934  1
  C  C5  4  0.15200255  0.33342416  1.06407750  1
  C  C6  4  0.37671913  0.73429700  0.04642526  1
  C  C7  4  0.44560487  0.25570465  1.01966398  1
  S  S8  4  -0.18858848  0.85445215  0.15885190  1
  S  S9  4  0.38862893  0.63385215  0.46021464  1
  S  S10  4  0.49257636  0.62505212  0.08426922  1
  N  N11  4  -0.76079823  0.81886944  0.80556931  1
  N  N12  4  -0.08812269  0.39870742  1.09631307  1
  N  N13  4  0.06298693  0.43650573  0.22349275  1
  N  N14  4  0.08426631  0.90144565  0.03589343  1
