###############################################################################################
#
# CIF file generated by modified CIFWriter class 
# in pymatgen (v2025.03.10) https://pymatgen.org/
#
###############################################################################################
data_MACE-OFF23(L)_52f6100bf83e23e
_symmetry_space_group_name_H-M   P2/c
_cell_length_a   6.11296820
_cell_length_b   11.53740830
_cell_length_c   17.00737694
_cell_angle_alpha   90.00000000
_cell_angle_beta   83.46943048
_cell_angle_gamma   90.00000000
_symmetry_Int_Tables_number   13
_chemical_formula_moiety   'C8 N4 S3'
_chemical_formula_sum   'C32 S12 N16'
_cell_volume   1191.70991955
_cell_formula_units_Z   4
loop_
 _symmetry_equiv_pos_site_id
 _symmetry_equiv_pos_as_xyz
  1  'x, y, z'
  2  '-x, -y, -z'
  3  '-x, y, -z+1/2'
  4  'x, -y, z+1/2'
loop_
 _atom_site_type_symbol
 _atom_site_label
 _atom_site_symmetry_multiplicity
 _atom_site_fract_x
 _atom_site_fract_y
 _atom_site_fract_z
 _atom_site_occupancy
  C  C0  4  0.23274321  0.45201743  0.07501138  1
  C  C1  4  0.25407139  0.92112855  0.98251496  1
  C  C2  4  0.25513953  0.55228682  -0.07240455  1
  C  C3  4  0.26702837  0.38052848  0.00594538  1
  C  C4  4  0.27587236  0.42888789  -0.06641147  1
  C  C5  4  0.31123791  0.13896444  0.55012100  1
  C  C6  4  0.48740230  0.74400062  1.13057700  1
  C  C7  4  0.49349726  0.79273609  1.05382559  1
  S  S8  4  0.15650530  0.13801371  0.64064991  1
  S  S9  4  0.29386593  0.23110632  0.02210090  1
  S  S10  4  0.31014663  0.35327754  -0.15662216  1
  N  N11  4  0.20049711  0.51175880  0.12913030  1
  N  N12  4  0.20985156  0.03119815  0.42717325  1
  N  N13  4  0.23559127  0.65124324  -0.07456157  1
  N  N14  4  0.32091017  0.22602442  0.68146300  1
