###############################################################################################
#
# CIF file generated by modified CIFWriter class 
# in pymatgen (v2025.03.10) https://pymatgen.org/
#
###############################################################################################
data_MACE-OFF23(L)_541aa45ae1e1d03
_symmetry_space_group_name_H-M   P2_12_12_1
_cell_length_a   8.17528903
_cell_length_b   10.13927658
_cell_length_c   11.94230130
_cell_angle_alpha   90.00000000
_cell_angle_beta   90.00000000
_cell_angle_gamma   90.00000000
_symmetry_Int_Tables_number   19
_chemical_formula_moiety   'C8 N4 S3'
_chemical_formula_sum   'C32 S12 N16'
_cell_volume   989.91546603
_cell_formula_units_Z   4
loop_
 _symmetry_equiv_pos_site_id
 _symmetry_equiv_pos_as_xyz
  1  'x, y, z'
  2  '-x+1/2, -y, z+1/2'
  3  'x+1/2, -y+1/2, -z'
  4  '-x, y+1/2, -z+1/2'
loop_
 _atom_site_type_symbol
 _atom_site_label
 _atom_site_symmetry_multiplicity
 _atom_site_fract_x
 _atom_site_fract_y
 _atom_site_fract_z
 _atom_site_occupancy
  C  C0  4  -0.16011982  0.91379251  0.76052448  1
  C  C1  4  -0.06362674  0.98535842  0.68227316  1
  C  C2  4  -0.02971811  0.14566757  -0.00108702  1
  C  C3  4  0.06974112  0.28408735  0.19166445  1
  C  C4  4  0.07439862  0.08458453  0.08006523  1
  C  C5  4  0.10353257  0.98418322  0.67600177  1
  C  C6  4  0.12179686  0.15143286  0.17152588  1
  C  C7  4  0.15437312  1.05822390  0.58106662  1
  S  S8  4  -0.14081639  1.07944750  0.57515487  1
  S  S9  4  0.13771057  -0.07692409  0.04630878  1
  S  S10  4  0.23534641  0.90672996  0.76972598  1
  N  N11  4  -0.23428268  0.85223038  0.82326125  1
  N  N12  4  -0.11169595  0.19382485  -0.06758367  1
  N  N13  4  0.03693802  0.39176520  0.21032369  1
  N  N14  4  0.03942247  1.11241391  0.52092666  1
