###############################################################################################
#
# CIF file generated by modified CIFWriter class 
# in pymatgen (v2025.03.10) https://pymatgen.org/
#
###############################################################################################
data_MACE-OFF23(L)_5670bc33c6ad44f
_symmetry_space_group_name_H-M   P2_12_12_1
_cell_length_a   8.58943755
_cell_length_b   6.99473033
_cell_length_c   16.01899022
_cell_angle_alpha   90.00000000
_cell_angle_beta   90.00000000
_cell_angle_gamma   90.00000000
_symmetry_Int_Tables_number   19
_chemical_formula_moiety   'C8 N4 S3'
_chemical_formula_sum   'C32 S12 N16'
_cell_volume   962.43373732
_cell_formula_units_Z   4
loop_
 _symmetry_equiv_pos_site_id
 _symmetry_equiv_pos_as_xyz
  1  'x, y, z'
  2  '-x+1/2, -y, z+1/2'
  3  '-x, y+1/2, -z+1/2'
  4  'x+1/2, -y+1/2, -z'
loop_
 _atom_site_type_symbol
 _atom_site_label
 _atom_site_symmetry_multiplicity
 _atom_site_fract_x
 _atom_site_fract_y
 _atom_site_fract_z
 _atom_site_occupancy
  C  C0  4  -0.09824317  1.08941114  0.52376470  1
  C  C1  4  -0.03131932  0.89969927  0.75625846  1
  C  C2  4  -0.01792552  0.91034050  0.66714091  1
  C  C3  4  0.02415749  0.99087977  0.48264350  1
  C  C4  4  0.04596494  1.06766531  0.40481430  1
  C  C5  4  0.10483046  0.83109395  0.62839706  1
  C  C6  4  0.14909463  0.98867880  0.34453699  1
  C  C7  4  0.23385197  0.75645333  0.67473902  1
  S  S8  4  -0.17952152  1.01971183  0.61977872  1
  S  S9  4  -0.08175028  1.25164338  0.38964784  1
  S  S10  4  0.12776289  0.79539834  0.52055752  1
  N  N11  4  -0.16107249  1.23042922  0.48244200  1
  N  N12  4  -0.05040435  0.88472068  0.82685527  1
  N  N13  4  0.15829916  0.30409775  0.20769374  1
  N  N14  4  0.23015259  0.90984198  0.29920796  1
