###############################################################################################
#
# CIF file generated by modified CIFWriter class 
# in pymatgen (v2025.03.10) https://pymatgen.org/
#
###############################################################################################
data_MACE-OFF23(L)_56d2091c022eb17
_symmetry_space_group_name_H-M   P4_1
_cell_length_a   12.73511395
_cell_length_b   12.73511395
_cell_length_c   6.99180482
_cell_angle_alpha   90.00000000
_cell_angle_beta   90.00000000
_cell_angle_gamma   90.00000000
_symmetry_Int_Tables_number   76
_chemical_formula_moiety   'C8 N4 S3'
_chemical_formula_sum   'C32 S12 N16'
_cell_volume   1133.95277189
_cell_formula_units_Z   4
loop_
 _symmetry_equiv_pos_site_id
 _symmetry_equiv_pos_as_xyz
  1  'x, y, z'
  2  '-y, x, z+1/4'
  3  '-x, -y, z+1/2'
  4  'y, -x, z+3/4'
loop_
 _atom_site_type_symbol
 _atom_site_label
 _atom_site_symmetry_multiplicity
 _atom_site_fract_x
 _atom_site_fract_y
 _atom_site_fract_z
 _atom_site_occupancy
  C  C0  4  0.01608871  0.75955222  0.37247621  1
  C  C1  4  0.07288503  0.75745066  0.54743137  1
  C  C2  4  0.15884402  0.49215979  1.00310233  1
  C  C3  4  0.16874237  0.44466594  0.61093124  1
  C  C4  4  0.17791382  0.73954972  0.57458843  1
  C  C5  4  0.20091013  0.74966401  0.77173995  1
  C  C6  4  0.21440310  0.40176487  0.93566528  1
  C  C7  4  0.22014628  0.37898912  0.74823865  1
  S  S8  4  0.01436280  0.78319146  0.76346240  1
  S  S9  4  0.27149523  0.71123652  0.39967356  1
  S  S10  4  0.27196983  0.32627058  1.11913158  1
  N  N11  4  -0.03372676  0.76372643  0.23578189  1
  N  N12  4  0.11787539  0.56531129  1.06339127  1
  N  N13  4  0.12348128  0.77466539  0.88517513  1
  N  N14  4  0.12920594  0.49793819  0.49986418  1
