###############################################################################################
#
# CIF file generated by modified CIFWriter class 
# in pymatgen (v2025.03.10) https://pymatgen.org/
#
###############################################################################################
data_MACE-OFF23(L)_580fcfba54c612b
_symmetry_space_group_name_H-M   Pca2_1
_cell_length_a   13.81875572
_cell_length_b   8.27960448
_cell_length_c   8.71175797
_cell_angle_alpha   90.00000000
_cell_angle_beta   90.00000000
_cell_angle_gamma   90.00000000
_symmetry_Int_Tables_number   29
_chemical_formula_moiety   'C8 N4 S3'
_chemical_formula_sum   'C32 S12 N16'
_cell_volume   996.74561127
_cell_formula_units_Z   4
loop_
 _symmetry_equiv_pos_site_id
 _symmetry_equiv_pos_as_xyz
  1  'x, y, z'
  2  '-x, -y, z+1/2'
  3  '-x+1/2, y, z+1/2'
  4  'x+1/2, -y, z'
loop_
 _atom_site_type_symbol
 _atom_site_label
 _atom_site_symmetry_multiplicity
 _atom_site_fract_x
 _atom_site_fract_y
 _atom_site_fract_z
 _atom_site_occupancy
  C  C0  4  -0.00941969  0.57781798  0.77709446  1
  C  C1  4  0.07439499  0.65972884  0.71916422  1
  C  C2  4  0.14557989  0.40451213  0.64929263  1
  C  C3  4  0.14923021  0.57695625  0.65945250  1
  C  C4  4  0.16768918  1.14104384  0.95711364  1
  C  C5  4  0.19003615  0.90822620  0.77828056  1
  C  C6  4  0.22409845  1.02734686  0.87356684  1
  C  C7  4  0.23058979  0.82337231  0.21380586  1
  S  S8  4  0.06893619  0.87187683  0.73495991  1
  S  S9  4  0.15232677  1.02597721  0.37137606  1
  S  S10  4  0.24311159  0.65989775  0.08632144  1
  N  N11  4  -0.07742511  0.51718305  0.82590162  1
  N  N12  4  0.12185118  1.23361187  1.02295184  1
  N  N13  4  0.14430445  0.26649390  0.63800115  1
  N  N14  4  0.14443690  0.87310323  0.25307176  1
