###############################################################################################
#
# CIF file generated by modified CIFWriter class 
# in pymatgen (v2025.03.10) https://pymatgen.org/
#
###############################################################################################
data_MACE-OFF23(L)_5a00231a50a450e
_symmetry_space_group_name_H-M   P2_1/c
_cell_length_a   8.10583729
_cell_length_b   13.91321615
_cell_length_c   14.03853622
_cell_angle_alpha   90.00000000
_cell_angle_beta   141.44877753
_cell_angle_gamma   90.00000000
_symmetry_Int_Tables_number   14
_chemical_formula_moiety   'C8 N4 S3'
_chemical_formula_sum   'C32 S12 N16'
_cell_volume   986.69850356
_cell_formula_units_Z   4
loop_
 _symmetry_equiv_pos_site_id
 _symmetry_equiv_pos_as_xyz
  1  'x, y, z'
  2  '-x, -y, -z'
  3  '-x, y+1/2, -z+1/2'
  4  'x, -y+1/2, z+1/2'
loop_
 _atom_site_type_symbol
 _atom_site_label
 _atom_site_symmetry_multiplicity
 _atom_site_fract_x
 _atom_site_fract_y
 _atom_site_fract_z
 _atom_site_occupancy
  C  C0  4  -0.52645874  0.41028592  0.75363382  1
  C  C1  4  -0.31178722  0.44241975  0.79324314  1
  C  C2  4  -0.09861488  0.11406268  0.36705004  1
  C  C3  4  0.09634720  0.44333610  0.90932114  1
  C  C4  4  0.17285651  0.37497921  0.43328043  1
  C  C5  4  0.17713476  0.27280905  0.44800125  1
  C  C6  4  0.36733618  0.28064479  0.99286034  1
  C  C7  4  0.42660374  0.76477329  -0.03186207  1
  S  S8  4  -0.26064257  0.55718344  0.77683646  1
  S  S9  4  -0.07073640  0.23341485  0.41458964  1
  S  S10  4  0.41668225  0.09518634  0.52364436  1
  N  N11  4  -0.68761485  0.37826507  0.72914540  1
  N  N12  4  0.03572286  0.53336028  0.86894402  1
  N  N13  4  0.16738695  0.45729643  0.42511185  1
  N  N14  4  0.24974541  0.79899803  -0.07309531  1
