###############################################################################################
#
# CIF file generated by modified CIFWriter class 
# in pymatgen (v2025.03.10) https://pymatgen.org/
#
###############################################################################################
data_MACE-OFF23(L)_5c422bd8a51598
_symmetry_space_group_name_H-M   Pna2_1
_cell_length_a   20.51974197
_cell_length_b   6.88522314
_cell_length_c   6.70461421
_cell_angle_alpha   90.00000000
_cell_angle_beta   90.00000000
_cell_angle_gamma   90.00000000
_symmetry_Int_Tables_number   33
_chemical_formula_moiety   'C8 N4 S3'
_chemical_formula_sum   'C32 S12 N16'
_cell_volume   947.24802437
_cell_formula_units_Z   4
loop_
 _symmetry_equiv_pos_site_id
 _symmetry_equiv_pos_as_xyz
  1  'x, y, z'
  2  '-x, -y, z+1/2'
  3  '-x+1/2, y+1/2, z+1/2'
  4  'x+1/2, -y+1/2, z'
loop_
 _atom_site_type_symbol
 _atom_site_label
 _atom_site_symmetry_multiplicity
 _atom_site_fract_x
 _atom_site_fract_y
 _atom_site_fract_z
 _atom_site_occupancy
  C  C0  4  -0.16471619  0.78149615  0.36020290  1
  C  C1  4  -0.12442868  0.40067768  0.35996096  1
  C  C2  4  -0.09610901  0.73973918  0.35863120  1
  C  C3  4  -0.07670268  0.55250143  0.35901865  1
  C  C4  4  0.03039827  0.85818029  0.35675475  1
  C  C5  4  0.05044039  0.66096039  0.35809055  1
  C  C6  4  0.11765243  0.65517216  0.35910601  1
  C  C7  4  0.15334059  0.47799851  0.36067711  1
  S  S8  4  -0.04934013  0.95138248  0.35621507  1
  S  S9  4  0.00232128  0.45229808  0.35806125  1
  S  S10  4  0.14904815  0.88458775  0.35827969  1
  N  N11  4  -0.21934727  0.81626000  0.36160968  1
  N  N12  4  -0.15973410  0.27127890  0.36033429  1
  N  N13  4  0.07700879  0.98709255  0.35659335  1
  N  N14  4  0.17565909  0.32507143  0.36207190  1
