###############################################################################################
#
# CIF file generated by modified CIFWriter class 
# in pymatgen (v2025.03.10) https://pymatgen.org/
#
###############################################################################################
data_MACE-OFF23(L)_5c77efdcd314bdc
_symmetry_space_group_name_H-M   P2_1/c
_cell_length_a   11.63034997
_cell_length_b   6.62656900
_cell_length_c   13.66683573
_cell_angle_alpha   90.00000000
_cell_angle_beta   120.44468423
_cell_angle_gamma   90.00000000
_symmetry_Int_Tables_number   14
_chemical_formula_moiety   'C8 N4 S3'
_chemical_formula_sum   'C32 S12 N16'
_cell_volume   908.06424628
_cell_formula_units_Z   4
loop_
 _symmetry_equiv_pos_site_id
 _symmetry_equiv_pos_as_xyz
  1  'x, y, z'
  2  '-x, -y, -z'
  3  '-x, y+1/2, -z+1/2'
  4  'x, -y+1/2, z+1/2'
loop_
 _atom_site_type_symbol
 _atom_site_label
 _atom_site_symmetry_multiplicity
 _atom_site_fract_x
 _atom_site_fract_y
 _atom_site_fract_z
 _atom_site_occupancy
  C  C0  4  0.00484272  0.36180678  0.63737026  1
  C  C1  4  0.08104709  0.14425131  0.36236106  1
  C  C2  4  0.13931022  0.19420992  0.21899148  1
  C  C3  4  0.17621772  0.30319237  0.82951772  1
  C  C4  4  0.35231690  0.75858719  0.42763592  1
  C  C5  4  0.39525433  0.23544041  0.27111587  1
  C  C6  4  0.42885534  0.73933089  0.04826652  1
  C  C7  4  0.43425940  0.25751889  0.88791315  1
  S  S8  4  0.23251460  0.24960437  0.15477023  1
  S  S9  4  0.33258628  0.25917490  0.44740532  1
  S  S10  4  0.36211735  0.72993615  0.13434566  1
  N  N11  4  -0.10256765  0.40577938  0.57181894  1
  N  N12  4  0.00600779  0.10466736  0.39050369  1
  N  N13  4  0.29250646  0.73913565  -0.16981314  1
  N  N14  4  0.49181868  0.27455105  0.74902415  1
