###############################################################################################
#
# CIF file generated by modified CIFWriter class 
# in pymatgen (v2025.03.10) https://pymatgen.org/
#
###############################################################################################
data_MACE-OFF23(L)_5cf1e41d17067d5
_symmetry_space_group_name_H-M   Pnnm
_cell_length_a   10.11936446
_cell_length_b   14.59384659
_cell_length_c   6.72847213
_cell_angle_alpha   90.00000000
_cell_angle_beta   90.00000000
_cell_angle_gamma   90.00000000
_symmetry_Int_Tables_number   58
_chemical_formula_moiety   'C8 N4 S3'
_chemical_formula_sum   'C32 S12 N16'
_cell_volume   993.66380971
_cell_formula_units_Z   4
loop_
 _symmetry_equiv_pos_site_id
 _symmetry_equiv_pos_as_xyz
  1  'x, y, z'
  2  '-x, -y, -z+148/473'
  3  '-x, -y, z'
  4  'x, y, -z+148/473'
  5  'x+1/2, -y+1/2, -z+643/791'
  6  '-x+1/2, y+1/2, z+1/2'
  7  '-x+1/2, y+1/2, -z+643/791'
  8  'x+1/2, -y+1/2, z+1/2'
loop_
 _atom_site_type_symbol
 _atom_site_label
 _atom_site_symmetry_multiplicity
 _atom_site_fract_x
 _atom_site_fract_y
 _atom_site_fract_z
 _atom_site_occupancy
  C  C0  4  -0.22559531  0.60757656  0.15645023  1
  C  C1  4  -0.18282446  0.70041558  0.15648610  1
  C  C2  4  -0.05532163  0.82912889  0.15643144  1
  C  C3  4  -0.05438329  0.73088285  0.15649603  1
  C  C4  4  0.16086997  0.18691678  0.65645985  1
  C  C5  4  0.16344738  0.37140882  0.65644867  1
  C  C6  4  0.21242260  0.82433540  0.15640611  1
  C  C7  4  0.21276824  0.73197800  0.15646016  1
  S  S8  4  0.07963317  0.65562464  0.15644032  1
  S  S9  4  0.08175560  0.90237344  0.15644784  1
  S  S10  4  0.21018756  0.70844393  0.65644545  1
  N  N11  4  -0.17124431  0.86814029  0.15639358  1
  N  N12  4  0.05611896  0.15666474  0.65645313  1
  N  N13  4  0.06499240  0.41038704  0.65649733  1
  N  N14  4  0.24175680  0.96778845  0.65634484  1
