###############################################################################################
#
# CIF file generated by modified CIFWriter class 
# in pymatgen (v2025.03.10) https://pymatgen.org/
#
###############################################################################################
data_MACE-OFF23(L)_5f257ea0302bc35
_symmetry_space_group_name_H-M   P2_1/c
_cell_length_a   8.12923700
_cell_length_b   19.05734240
_cell_length_c   6.19420485
_cell_angle_alpha   90.00000000
_cell_angle_beta   94.26635790
_cell_angle_gamma   90.00000000
_symmetry_Int_Tables_number   14
_chemical_formula_moiety   'C8 N4 S3'
_chemical_formula_sum   'C32 S12 N16'
_cell_volume   956.95734454
_cell_formula_units_Z   4
loop_
 _symmetry_equiv_pos_site_id
 _symmetry_equiv_pos_as_xyz
  1  'x, y, z'
  2  '-x, -y, -z'
  3  '-x, y+1/2, -z+1/2'
  4  'x, -y+1/2, z+1/2'
loop_
 _atom_site_type_symbol
 _atom_site_label
 _atom_site_symmetry_multiplicity
 _atom_site_fract_x
 _atom_site_fract_y
 _atom_site_fract_z
 _atom_site_occupancy
  C  C0  4  -0.09107654  0.33054720  1.11808961  1
  C  C1  4  0.03466194  0.38003380  1.08241268  1
  C  C2  4  0.13284877  0.38098958  0.91199295  1
  C  C3  4  0.23946910  0.06017551  0.43248392  1
  C  C4  4  0.35256220  0.18118520  0.18256830  1
  C  C5  4  0.37752164  0.62649632  0.34255777  1
  C  C6  4  0.41189260  0.25169157  0.17312715  1
  C  C7  4  0.44966769  0.12416688  0.18822947  1
  S  S8  4  0.08285430  0.04995658  0.74853486  1
  S  S9  4  0.13564061  0.17862100  0.19907117  1
  S  S10  4  0.37679716  0.03879131  0.23569664  1
  N  N11  4  -0.19152098  0.28977016  1.14447094  1
  N  N12  4  0.22703602  0.02031072  0.60131072  1
  N  N13  4  0.24075109  0.87785303  0.87469006  1
  N  N14  4  0.43632249  0.31107791  0.17381092  1
