###############################################################################################
#
# CIF file generated by modified CIFWriter class 
# in pymatgen (v2025.03.10) https://pymatgen.org/
#
###############################################################################################
data_MACE-OFF23(L)_5ff2fb4407eff30
_symmetry_space_group_name_H-M   P-4
_cell_length_a   9.49149160
_cell_length_b   9.49149160
_cell_length_c   12.33593983
_cell_angle_alpha   90.00000000
_cell_angle_beta   90.00000000
_cell_angle_gamma   90.00000000
_symmetry_Int_Tables_number   81
_chemical_formula_moiety   'C8 N4 S3'
_chemical_formula_sum   'C32 S12 N16'
_cell_volume   1111.32524037
_cell_formula_units_Z   4
loop_
 _symmetry_equiv_pos_site_id
 _symmetry_equiv_pos_as_xyz
  1  'x, y, z'
  2  'y, -x, -z'
  3  '-x, -y, z'
  4  '-y, x, -z'
loop_
 _atom_site_type_symbol
 _atom_site_label
 _atom_site_symmetry_multiplicity
 _atom_site_fract_x
 _atom_site_fract_y
 _atom_site_fract_z
 _atom_site_occupancy
  C  C0  4  -0.05845874  0.81451460  0.27122989  1
  C  C1  4  -0.05514777  0.76954084  0.07955478  1
  C  C2  4  0.00159454  0.74951684  0.18620656  1
  C  C3  4  0.08457373  -0.16986153  0.74139615  1
  C  C4  4  0.10261084  0.66157862  0.41184309  1
  C  C5  4  0.16729446  0.59556726  0.32066307  1
  C  C6  4  0.25428577  0.49029487  0.35746775  1
  C  C7  4  0.34353847  0.40271046  0.29407486  1
  S  S8  4  -0.01620103  0.80241127  0.40963807  1
  S  S9  4  0.14943805  0.63795698  0.18376844  1
  S  S10  4  0.24650472  0.48068853  0.49613008  1
  N  N11  4  -0.09796962  0.77951214  -0.00703022  1
  N  N12  4  -0.00450834  -0.25163764  0.73997710  1
  N  N13  4  0.13544979  0.61120188  0.50697468  1
  N  N14  4  0.33264959  0.58149698  0.75525651  1
