###############################################################################################
#
# CIF file generated by modified CIFWriter class 
# in pymatgen (v2025.03.10) https://pymatgen.org/
#
###############################################################################################
data_MACE-OFF23(L)_64c7d4810531751
_symmetry_space_group_name_H-M   P2_1/c
_cell_length_a   8.33139223
_cell_length_b   11.18294026
_cell_length_c   12.40067760
_cell_angle_alpha   90.00000000
_cell_angle_beta   127.31865070
_cell_angle_gamma   90.00000000
_symmetry_Int_Tables_number   14
_chemical_formula_moiety   'C8 N4 S3'
_chemical_formula_sum   'C32 S12 N16'
_cell_volume   918.83383008
_cell_formula_units_Z   4
loop_
 _symmetry_equiv_pos_site_id
 _symmetry_equiv_pos_as_xyz
  1  'x, y, z'
  2  '-x, -y, -z'
  3  '-x, y+1/2, -z+1/2'
  4  'x, -y+1/2, z+1/2'
loop_
 _atom_site_type_symbol
 _atom_site_label
 _atom_site_symmetry_multiplicity
 _atom_site_fract_x
 _atom_site_fract_y
 _atom_site_fract_z
 _atom_site_occupancy
  C  C0  4  0.00087325  0.74086089  0.51792670  1
  C  C1  4  0.10625788  0.71400155  0.96956564  1
  C  C2  4  0.18162817  0.77414729  0.91260210  1
  C  C3  4  0.29181115  0.69191995  0.89202137  1
  C  C4  4  0.31459314  0.54384835  0.34282877  1
  C  C5  4  0.33331867  0.41791869  0.32953444  1
  C  C6  4  0.42882978  0.87973905  0.83119527  1
  C  C7  4  0.43212374  0.07316789  0.19000180  1
  S  S8  4  0.13284065  0.92462172  0.86732349  1
  S  S9  4  0.16780792  0.93448680  0.48549665  1
  S  S10  4  0.42871232  0.77638155  0.33025253  1
  N  N11  4  -0.07562413  0.78989356  1.06510112  1
  N  N12  4  0.29536896  0.58139017  0.92616860  1
  N  N13  4  0.32176043  0.03695361  0.20841771  1
  N  N14  4  0.34864358  1.18246785  0.81768863  1
