###############################################################################################
#
# CIF file generated by modified CIFWriter class 
# in pymatgen (v2025.03.10) https://pymatgen.org/
#
###############################################################################################
data_MACE-OFF23(L)_6be50be3de399d1
_symmetry_space_group_name_H-M   P2_1/c
_cell_length_a   16.98202471
_cell_length_b   4.96105052
_cell_length_c   12.02607731
_cell_angle_alpha   90.00000000
_cell_angle_beta   90.12575808
_cell_angle_gamma   90.00000000
_symmetry_Int_Tables_number   14
_chemical_formula_moiety   'C8 N4 S3'
_chemical_formula_sum   'C32 S12 N16'
_cell_volume   1013.17872890
_cell_formula_units_Z   4
loop_
 _symmetry_equiv_pos_site_id
 _symmetry_equiv_pos_as_xyz
  1  'x, y, z'
  2  '-x, -y, -z'
  3  '-x, y+1/2, -z+1/2'
  4  'x, -y+1/2, z+1/2'
loop_
 _atom_site_type_symbol
 _atom_site_label
 _atom_site_symmetry_multiplicity
 _atom_site_fract_x
 _atom_site_fract_y
 _atom_site_fract_z
 _atom_site_occupancy
  C  C0  4  0.10004531  0.64751043  0.71378281  1
  C  C1  4  0.11967484  0.45513292  0.63085836  1
  C  C2  4  0.19021047  0.26545358  -0.00210784  1
  C  C3  4  0.19355276  0.07809159  0.08663698  1
  C  C4  4  0.34521711  0.34229049  0.01583737  1
  C  C5  4  0.34690122  0.18131266  0.10529435  1
  C  C6  4  0.40087698  0.55606571  -0.00000045  1
  C  C7  4  0.40241679  0.28542076  0.69406644  1
  S  S8  4  0.05499798  0.24858777  0.56235203  1
  S  S9  4  0.27173406  0.32933947  -0.08813718  1
  S  S10  4  0.27913997  0.58401391  0.62933580  1
  N  N11  4  0.08821547  -0.31722656  0.27649653  1
  N  N12  4  0.12161203  0.12506730  0.47814744  1
  N  N13  4  0.44034038  0.23367087  0.27281571  1
  N  N14  4  0.44055956  0.73956234  -0.01507686  1
