###############################################################################################
#
# CIF file generated by modified CIFWriter class 
# in pymatgen (v2025.03.10) https://pymatgen.org/
#
###############################################################################################
data_MACE-OFF23(L)_723dd2506db8bb
_symmetry_space_group_name_H-M   P2_12_12_1
_cell_length_a   11.05525625
_cell_length_b   6.80713804
_cell_length_c   12.09983330
_cell_angle_alpha   90.00000000
_cell_angle_beta   90.00000000
_cell_angle_gamma   90.00000000
_symmetry_Int_Tables_number   19
_chemical_formula_moiety   'C8 N4 S3'
_chemical_formula_sum   'C32 S12 N16'
_cell_volume   910.56878486
_cell_formula_units_Z   4
loop_
 _symmetry_equiv_pos_site_id
 _symmetry_equiv_pos_as_xyz
  1  'x, y, z'
  2  '-x+1/2, -y, z+1/2'
  3  '-x, y+1/2, -z+1/2'
  4  'x+1/2, -y+1/2, -z'
loop_
 _atom_site_type_symbol
 _atom_site_label
 _atom_site_symmetry_multiplicity
 _atom_site_fract_x
 _atom_site_fract_y
 _atom_site_fract_z
 _atom_site_occupancy
  C  C0  4  -0.09936206  -0.01951485  0.39859818  1
  C  C1  4  -0.01761769  0.14185376  0.39497748  1
  C  C2  4  0.07556605  0.76677428  0.67548594  1
  C  C3  4  0.10462121  0.13356365  0.37649494  1
  C  C4  4  0.15133268  0.32770174  0.37359864  1
  C  C5  4  0.15865209  0.81351107  0.76240916  1
  C  C6  4  0.16336301  1.14300243  0.69209381  1
  C  C7  4  0.20271976  0.99698071  0.76949359  1
  S  S8  4  -0.06059242  0.38144862  0.41299633  1
  S  S9  4  0.19097506  -0.08014082  0.36698408  1
  S  S10  4  0.19503884  0.61726765  0.85044781  1
  N  N11  4  -0.16631664  -0.14836314  0.40041637  1
  N  N12  4  0.00846212  0.73254607  0.60572211  1
  N  N13  4  0.07479563  0.47014113  0.39000255  1
  N  N14  4  0.13133068  1.26122601  0.63099593  1
