###############################################################################################
#
# CIF file generated by modified CIFWriter class 
# in pymatgen (v2025.03.10) https://pymatgen.org/
#
###############################################################################################
data_MACE-OFF23(L)_7951cd22f77399f
_symmetry_space_group_name_H-M   P4_2
_cell_length_a   8.19196281
_cell_length_b   8.19196281
_cell_length_c   17.66132198
_cell_angle_alpha   90.00000000
_cell_angle_beta   90.00000000
_cell_angle_gamma   90.00000000
_symmetry_Int_Tables_number   77
_chemical_formula_moiety   'C8 N4 S3'
_chemical_formula_sum   'C32 S12 N16'
_cell_volume   1185.22049385
_cell_formula_units_Z   4
loop_
 _symmetry_equiv_pos_site_id
 _symmetry_equiv_pos_as_xyz
  1  'x, y, z'
  2  '-y, x, z+1/2'
  3  '-x, -y, z'
  4  'y, -x, z+1/2'
loop_
 _atom_site_type_symbol
 _atom_site_label
 _atom_site_symmetry_multiplicity
 _atom_site_fract_x
 _atom_site_fract_y
 _atom_site_fract_z
 _atom_site_occupancy
  C  C0  4  0.08126180  0.69288924  0.68831377  1
  C  C1  4  0.18681764  0.58945661  0.24339507  1
  C  C2  4  0.18755219  0.28505488  0.07302253  1
  C  C3  4  0.21805315  0.55657599  0.37070897  1
  C  C4  4  0.24353018  0.35222102  0.14313005  1
  C  C5  4  0.25451298  0.69963705  0.69818846  1
  C  C6  4  0.25721075  0.49184931  0.30139241  1
  C  C7  4  0.26516647  0.49321870  0.44228179  1
  S  S8  4  0.09761776  0.72558181  0.35834932  1
  S  S9  4  0.22954602  0.56628552  0.14667916  1
  S  S10  4  0.31792113  0.62441773  0.78671302  1
  N  N11  4  -0.05794016  0.68309269  0.68284745  1
  N  N12  4  0.09567575  0.71085876  0.26589135  1
  N  N13  4  0.14209242  0.23673169  0.01579858  1
  N  N14  4  0.30445716  0.43890528  0.49939030  1
