###############################################################################################
#
# CIF file generated by modified CIFWriter class 
# in pymatgen (v2025.03.10) https://pymatgen.org/
#
###############################################################################################
data_MACE-OFF23(L)_7b97c61272070ff
_symmetry_space_group_name_H-M   P2_1/c
_cell_length_a   10.07854390
_cell_length_b   9.69577362
_cell_length_c   12.19819491
_cell_angle_alpha   90.00000000
_cell_angle_beta   129.12176733
_cell_angle_gamma   90.00000000
_symmetry_Int_Tables_number   14
_chemical_formula_moiety   'C8 N4 S3'
_chemical_formula_sum   'C32 S12 N16'
_cell_volume   924.76073450
_cell_formula_units_Z   4
loop_
 _symmetry_equiv_pos_site_id
 _symmetry_equiv_pos_as_xyz
  1  'x, y, z'
  2  '-x, -y, -z'
  3  '-x, y+1/2, -z+1/2'
  4  'x, -y+1/2, z+1/2'
loop_
 _atom_site_type_symbol
 _atom_site_label
 _atom_site_symmetry_multiplicity
 _atom_site_fract_x
 _atom_site_fract_y
 _atom_site_fract_z
 _atom_site_occupancy
  C  C0  4  0.08043527  0.62485145  0.16474401  1
  C  C1  4  0.18659650  0.58378964  0.13103295  1
  C  C2  4  0.19082057  0.05499703  0.16197820  1
  C  C3  4  0.25904529  0.45654097  0.15193708  1
  C  C4  4  0.26310446  0.17972211  0.15666689  1
  C  C5  4  0.33875905  0.05503387  0.03344928  1
  C  C6  4  0.33971738  0.17906266  0.09774789  1
  C  C7  4  0.34531796  0.45691678  0.09404940  1
  S  S8  4  0.23332272  0.69013785  0.04756166  1
  S  S9  4  0.24716306  0.31974727  0.23850985  1
  S  S10  4  0.45076054  0.31420195  0.09123878  1
  N  N11  4  -0.01332183  -0.15471891  0.68430125  1
  N  N12  4  0.13864335  -0.04681291  0.16904977  1
  N  N13  4  0.34060244  0.54280836  0.48150729  1
  N  N14  4  0.34288912  0.57279836  0.03833989  1
