###############################################################################################
#
# CIF file generated by modified CIFWriter class 
# in pymatgen (v2025.03.10) https://pymatgen.org/
#
###############################################################################################
data_MACE-OFF23(L)_7ce1dd70d94f123
_symmetry_space_group_name_H-M   P2_1/c
_cell_length_a   9.18600767
_cell_length_b   8.78427067
_cell_length_c   12.19485820
_cell_angle_alpha   90.00000000
_cell_angle_beta   83.20283186
_cell_angle_gamma   90.00000000
_symmetry_Int_Tables_number   14
_chemical_formula_moiety   'C8 N4 S3'
_chemical_formula_sum   'C32 S12 N16'
_cell_volume   977.11569648
_cell_formula_units_Z   4
loop_
 _symmetry_equiv_pos_site_id
 _symmetry_equiv_pos_as_xyz
  1  'x, y, z'
  2  '-x, -y, -z'
  3  '-x, y+1/2, -z+1/2'
  4  'x, -y+1/2, z+1/2'
loop_
 _atom_site_type_symbol
 _atom_site_label
 _atom_site_symmetry_multiplicity
 _atom_site_fract_x
 _atom_site_fract_y
 _atom_site_fract_z
 _atom_site_occupancy
  C  C0  4  0.16032177  1.28661035  0.73213922  1
  C  C1  4  0.16495038  1.15131234  0.79497485  1
  C  C2  4  0.17434931  1.00480438  0.75668157  1
  C  C3  4  0.17868807  0.59528869  0.34722749  1
  C  C4  4  0.31692508  0.70261840  0.71016647  1
  C  C5  4  0.31694909  0.70004258  0.12531654  1
  C  C6  4  0.42592095  0.58666116  0.71202552  1
  C  C7  4  0.42972790  0.79624900  0.53370529  1
  S  S8  4  0.16071259  1.15111284  0.93561418  1
  S  S9  4  0.18314406  0.55624762  0.11997653  1
  S  S10  4  0.18767367  0.79398340  0.32938524  1
  N  N11  4  0.15290793  0.10379489  0.18178675  1
  N  N12  4  0.17389710  0.96565916  0.94495249  1
  N  N13  4  0.48166114  0.20272252  0.54095431  1
  N  N14  4  0.49112508  -0.00966730  0.78197946  1
