###############################################################################################
#
# CIF file generated by modified CIFWriter class 
# in pymatgen (v2025.03.10) https://pymatgen.org/
#
###############################################################################################
data_MACE-OFF23(L)_7db493c24664ac7
_symmetry_space_group_name_H-M   P2_12_12_1
_cell_length_a   15.38154332
_cell_length_b   11.14684881
_cell_length_c   6.19605520
_cell_angle_alpha   90.00000000
_cell_angle_beta   90.00000000
_cell_angle_gamma   90.00000000
_symmetry_Int_Tables_number   19
_chemical_formula_moiety   'C8 N4 S3'
_chemical_formula_sum   'C32 S12 N16'
_cell_volume   1062.34921712
_cell_formula_units_Z   4
loop_
 _symmetry_equiv_pos_site_id
 _symmetry_equiv_pos_as_xyz
  1  'x, y, z'
  2  'x+1/2, -y+1/2, -z'
  3  '-x+1/2, -y, z+1/2'
  4  '-x, y+1/2, -z+1/2'
loop_
 _atom_site_type_symbol
 _atom_site_label
 _atom_site_symmetry_multiplicity
 _atom_site_fract_x
 _atom_site_fract_y
 _atom_site_fract_z
 _atom_site_occupancy
  C  C0  4  0.05470012  0.84184595  0.31438774  1
  C  C1  4  0.07936998  0.67437798  0.11518545  1
  C  C2  4  0.10121511  0.73240012  0.30221954  1
  C  C3  4  0.11492677  0.56571589  0.03373237  1
  C  C4  4  0.17791607  0.17437341  1.02805870  1
  C  C5  4  0.18488224  0.93025149  0.53703072  1
  C  C6  4  0.22891366  0.82599364  0.52670681  1
  C  C7  4  0.22966977  1.04256389  0.54022555  1
  S  S8  4  0.00279102  0.75693159  -0.01984208  1
  S  S9  4  0.07081492  0.94145361  0.53180451  1
  S  S10  4  0.17708765  0.68612289  0.49520989  1
  N  N11  4  0.00165173  0.86616514  0.15641692  1
  N  N12  4  0.10327019  0.17155298  1.02728625  1
  N  N13  4  0.14244860  0.47839969  -0.03710976  1
  N  N14  4  0.23571460  -0.13396820  1.03914411  1
