###############################################################################################
#
# CIF file generated by modified CIFWriter class 
# in pymatgen (v2025.03.10) https://pymatgen.org/
#
###############################################################################################
data_MACE-OFF23(L)_83cb40f300e160
_symmetry_space_group_name_H-M   Pnn2
_cell_length_a   7.10830454
_cell_length_b   17.27820172
_cell_length_c   8.56462420
_cell_angle_alpha   90.00000000
_cell_angle_beta   90.00000000
_cell_angle_gamma   90.00000000
_symmetry_Int_Tables_number   34
_chemical_formula_moiety   'C8 N4 S3'
_chemical_formula_sum   'C32 S12 N16'
_cell_volume   1051.89617887
_cell_formula_units_Z   4
loop_
 _symmetry_equiv_pos_site_id
 _symmetry_equiv_pos_as_xyz
  1  'x, y, z'
  2  '-x, -y, z'
  3  '-x+1/2, y+1/2, z+1/2'
  4  'x+1/2, -y+1/2, z+1/2'
loop_
 _atom_site_type_symbol
 _atom_site_label
 _atom_site_symmetry_multiplicity
 _atom_site_fract_x
 _atom_site_fract_y
 _atom_site_fract_z
 _atom_site_occupancy
  C  C0  4  0.15149511  0.73028367  0.14254560  1
  C  C1  4  0.16073453  0.59515472  0.29360081  1
  C  C2  4  0.16492578  0.76962054  -0.00459421  1
  C  C3  4  0.19150608  0.10097988  1.20188961  1
  C  C4  4  0.19500179  0.63466501  0.43595364  1
  C  C5  4  0.19826448  0.76752653  0.27488361  1
  C  C6  4  0.22126446  0.34349196  0.76959726  1
  C  C7  4  0.24569113  0.08257446  1.04649942  1
  S  S8  4  0.06040288  0.63647142  0.12641123  1
  S  S9  4  0.16336087  0.73346366  0.46711869  1
  S  S10  4  0.24034149  -0.00807888  0.96650724  1
  N  N11  4  0.14350968  0.12025986  1.32386270  1
  N  N12  4  0.15547583  0.40421920  0.76952539  1
  N  N13  4  0.16345425  0.80128956  -0.12244252  1
  N  N14  4  0.19619986  0.52107856  0.29321564  1
