###############################################################################################
#
# CIF file generated by modified CIFWriter class 
# in pymatgen (v2025.03.10) https://pymatgen.org/
#
###############################################################################################
data_MACE-OFF23(L)_840d370702aea71
_symmetry_space_group_name_H-M   P4_2
_cell_length_a   11.57886102
_cell_length_b   11.57886102
_cell_length_c   7.52593808
_cell_angle_alpha   90.00000000
_cell_angle_beta   90.00000000
_cell_angle_gamma   90.00000000
_symmetry_Int_Tables_number   77
_chemical_formula_moiety   'C8 N4 S3'
_chemical_formula_sum   'C32 S12 N16'
_cell_volume   1009.00268738
_cell_formula_units_Z   4
loop_
 _symmetry_equiv_pos_site_id
 _symmetry_equiv_pos_as_xyz
  1  'x, y, z'
  2  '-y, x, z+1/2'
  3  '-x, -y, z'
  4  'y, -x, z+1/2'
loop_
 _atom_site_type_symbol
 _atom_site_label
 _atom_site_symmetry_multiplicity
 _atom_site_fract_x
 _atom_site_fract_y
 _atom_site_fract_z
 _atom_site_occupancy
  C  C0  4  -0.00100965  0.32448844  -0.05129982  1
  C  C1  4  0.03570853  0.27978079  0.11556068  1
  C  C2  4  0.10560878  0.33518410  0.23601313  1
  C  C3  4  0.13212532  0.25775904  0.37633505  1
  C  C4  4  0.19775005  0.50827356  0.42801958  1
  C  C5  4  0.20355151  0.63030460  0.45865510  1
  C  C6  4  0.22689616  0.43521767  0.55922529  1
  C  C7  4  0.27116767  0.47983747  0.72329132  1
  S  S8  4  0.00912519  0.14180037  0.18504492  1
  S  S9  4  0.16066966  0.47397822  0.20777770  1
  S  S10  4  0.22534665  0.28417515  0.55519794  1
  N  N11  4  -0.02848088  0.36251352  -0.18580218  1
  N  N12  4  0.08627937  0.15520433  0.36576403  1
  N  N13  4  0.20847237  0.72833601  0.47893706  1
  N  N14  4  0.31474045  0.51272173  0.85048416  1
