###############################################################################################
#
# CIF file generated by modified CIFWriter class 
# in pymatgen (v2025.03.10) https://pymatgen.org/
#
###############################################################################################
data_MACE-OFF23(L)_84e617d5b1b36fd
_symmetry_space_group_name_H-M   P2_12_12
_cell_length_a   11.01075046
_cell_length_b   9.10773574
_cell_length_c   11.31505810
_cell_angle_alpha   90.00000000
_cell_angle_beta   90.00000000
_cell_angle_gamma   90.00000000
_symmetry_Int_Tables_number   18
_chemical_formula_moiety   'C8 N4 S3'
_chemical_formula_sum   'C32 S12 N16'
_cell_volume   1134.70803269
_cell_formula_units_Z   4
loop_
 _symmetry_equiv_pos_site_id
 _symmetry_equiv_pos_as_xyz
  1  'x, y, z'
  2  '-x, -y, z'
  3  '-x+1/2, y+1/2, -z'
  4  'x+1/2, -y+1/2, -z'
loop_
 _atom_site_type_symbol
 _atom_site_label
 _atom_site_symmetry_multiplicity
 _atom_site_fract_x
 _atom_site_fract_y
 _atom_site_fract_z
 _atom_site_occupancy
  C  C0  4  0.01611120  0.79496738  0.94295020  1
  C  C1  4  0.11841476  0.84800290  0.87789841  1
  C  C2  4  0.13929467  0.36598388  0.24482114  1
  C  C3  4  0.18006548  0.17775447  0.37110674  1
  C  C4  4  0.20681529  0.92689717  0.92951483  1
  C  C5  4  0.20710598  0.95282028  1.05452114  1
  C  C6  4  0.23138788  0.27928858  0.29736661  1
  C  C7  4  0.24085344  0.07011671  0.44002895  1
  S  S8  4  0.02574423  0.19988598  0.36999255  1
  S  S9  4  0.11363190  0.80628801  0.72564007  1
  S  S10  4  0.17196125  0.51101996  0.14658622  1
  N  N11  4  -0.07155529  0.75782003  0.98895404  1
  N  N12  4  0.02791584  0.33480663  0.27466604  1
  N  N13  4  0.21044389  0.48334316  0.50363664  1
  N  N14  4  0.21093409  0.97628750  1.15408327  1
