###############################################################################################
#
# CIF file generated by modified CIFWriter class 
# in pymatgen (v2025.03.10) https://pymatgen.org/
#
###############################################################################################
data_MACE-OFF23(L)_88dea3cab525d71
_symmetry_space_group_name_H-M   P2_1/m
_cell_length_a   10.37313453
_cell_length_b   6.28284401
_cell_length_c   13.68711450
_cell_angle_alpha   90.00000000
_cell_angle_beta   84.64190912
_cell_angle_gamma   90.00000000
_symmetry_Int_Tables_number   11
_chemical_formula_moiety   'C8 N4 S3'
_chemical_formula_sum   'C32 S12 N16'
_cell_volume   888.12970350
_cell_formula_units_Z   4
loop_
 _symmetry_equiv_pos_site_id
 _symmetry_equiv_pos_as_xyz
  1  'x, y, z'
  2  '-x, -y, -z+1/2'
  3  '-x, y+1/2, -z+1/2'
  4  'x, -y+1/2, z'
  5  'x, y, z+1/2'
  6  '-x, -y, -z'
  7  '-x, y+1/2, -z'
  8  'x, -y+1/2, z+1/2'
loop_
 _atom_site_type_symbol
 _atom_site_label
 _atom_site_symmetry_multiplicity
 _atom_site_fract_x
 _atom_site_fract_y
 _atom_site_fract_z
 _atom_site_occupancy
  C  C0  4  -0.01396466  0.75014690  0.90156781  1
  C  C1  4  0.05929431  0.75007609  0.58560628  1
  C  C2  4  0.12234686  0.74999098  0.41281238  1
  C  C3  4  0.15799129  0.74992903  1.00505550  1
  C  C4  4  0.37318635  0.75004258  0.33714108  1
  C  C5  4  0.38407878  0.25000661  0.48668900  1
  C  C6  4  0.41069673  0.75002396  0.93445281  1
  C  C7  4  0.45641342  0.25003564  0.07007949  1
  S  S8  4  0.21562863  0.75005971  0.80030121  1
  S  S9  4  0.31375299  0.74999183  0.54579018  1
  S  S10  4  0.39128528  0.24986159  0.68929167  1
  N  N11  4  -0.12327645  0.75026686  0.89483294  1
  N  N12  4  -0.01972349  0.75031729  0.65029195  1
  N  N13  4  0.33121195  0.24995636  -0.08338985  1
  N  N14  4  0.46707137  0.74987441  0.76718803  1
