###############################################################################################
#
# CIF file generated by modified CIFWriter class 
# in pymatgen (v2025.03.10) https://pymatgen.org/
#
###############################################################################################
data_MACE-OFF23(L)_88ebd7dd34cf277
_symmetry_space_group_name_H-M   P2_1/c
_cell_length_a   10.93214657
_cell_length_b   6.74448313
_cell_length_c   13.23074331
_cell_angle_alpha   90.00000000
_cell_angle_beta   96.13717661
_cell_angle_gamma   90.00000000
_symmetry_Int_Tables_number   14
_chemical_formula_moiety   'C8 N4 S3'
_chemical_formula_sum   'C32 S12 N16'
_cell_volume   969.93396285
_cell_formula_units_Z   4
loop_
 _symmetry_equiv_pos_site_id
 _symmetry_equiv_pos_as_xyz
  1  'x, y, z'
  2  '-x, -y, -z'
  3  '-x, y+1/2, -z+1/2'
  4  'x, -y+1/2, z+1/2'
loop_
 _atom_site_type_symbol
 _atom_site_label
 _atom_site_symmetry_multiplicity
 _atom_site_fract_x
 _atom_site_fract_y
 _atom_site_fract_z
 _atom_site_occupancy
  C  C0  4  0.11082105  0.30403246  0.49766625  1
  C  C1  4  0.12224965  0.28688000  0.79334652  1
  C  C2  4  0.15967568  0.05525201  0.93157781  1
  C  C3  4  0.17243500  0.10382532  0.83488452  1
  C  C4  4  0.35156240  0.68401895  0.44400391  1
  C  C5  4  0.37148464  -0.12402506  0.84423500  1
  C  C6  4  0.44261852  1.11730719  0.25396138  1
  C  C7  4  0.49347897  -0.15248856  0.83214939  1
  S  S8  4  0.20754534  -0.17136739  0.98989548  1
  S  S9  4  0.25275572  0.54482631  0.25402265  1
  S  S10  4  0.43203807  1.25514819  0.06014715  1
  N  N11  4  0.07809556  0.18969487  0.55322707  1
  N  N12  4  0.07935263  0.06779464  0.26140982  1
  N  N13  4  0.38580603  0.40801632  0.82101764  1
  N  N14  4  0.44641685  -0.25305372  1.00155338  1
