###############################################################################################
#
# CIF file generated by modified CIFWriter class 
# in pymatgen (v2025.03.10) https://pymatgen.org/
#
###############################################################################################
data_MACE-OFF23(L)_8c4fb32384bfcf5
_symmetry_space_group_name_H-M   Pba2
_cell_length_a   18.97253616
_cell_length_b   13.74047917
_cell_length_c   3.79353672
_cell_angle_alpha   90.00000000
_cell_angle_beta   90.00000000
_cell_angle_gamma   90.00000000
_symmetry_Int_Tables_number   32
_chemical_formula_moiety   'C8 N4 S3'
_chemical_formula_sum   'C32 S12 N16'
_cell_volume   988.94367939
_cell_formula_units_Z   4
loop_
 _symmetry_equiv_pos_site_id
 _symmetry_equiv_pos_as_xyz
  1  'x, y, z'
  2  '-x, -y, z'
  3  'x+1/2, -y+1/2, z'
  4  '-x+1/2, y+1/2, z'
loop_
 _atom_site_type_symbol
 _atom_site_label
 _atom_site_symmetry_multiplicity
 _atom_site_fract_x
 _atom_site_fract_y
 _atom_site_fract_z
 _atom_site_occupancy
  C  C0  4  -0.00910162  0.84634653  0.06893064  1
  C  C1  4  -0.00709993  0.64647065  -0.08914911  1
  C  C2  4  0.04912149  0.78667806  0.17584430  1
  C  C3  4  0.04998072  0.69110071  0.09819351  1
  C  C4  4  0.18944705  0.68821462  0.17822028  1
  C  C5  4  0.18990002  0.78791390  0.28002466  1
  C  C6  4  0.22386749  0.07142473  -0.07624621  1
  C  C7  4  0.24392593  0.16184002  0.07521085  1
  S  S8  4  0.11415522  0.85411543  0.40101549  1
  S  S9  4  0.11796156  0.60856075  0.20105635  1
  S  S10  4  0.18777099  0.25787847  0.13239480  1
  N  N11  4  -0.05476752  0.89624554  -0.01424500  1
  N  N12  4  -0.05062881  0.60741493  -0.24503263  1
  N  N13  4  0.21048303  -0.00037785  -0.21513101  1
  N  N14  4  0.24923685  0.33199384  0.27261713  1
