###############################################################################################
#
# CIF file generated by modified CIFWriter class 
# in pymatgen (v2025.03.10) https://pymatgen.org/
#
###############################################################################################
data_MACE-OFF23(L)_8ec86d65539b994
_symmetry_space_group_name_H-M   C2
_cell_length_a   17.55851642
_cell_length_b   8.37667371
_cell_length_c   9.18567970
_cell_angle_alpha   90.00000000
_cell_angle_beta   119.31290866
_cell_angle_gamma   90.00000000
_symmetry_Int_Tables_number   5
_chemical_formula_moiety   'C8 N4 S3'
_chemical_formula_sum   'C32 S12 N16'
_cell_volume   1178.05828082
_cell_formula_units_Z   4
loop_
 _symmetry_equiv_pos_site_id
 _symmetry_equiv_pos_as_xyz
  1  'x, y, z'
  2  '-x, y, -z'
  3  'x+1/2, y+1/2, z'
  4  '-x+1/2, y+1/2, -z'
loop_
 _atom_site_type_symbol
 _atom_site_label
 _atom_site_symmetry_multiplicity
 _atom_site_fract_x
 _atom_site_fract_y
 _atom_site_fract_z
 _atom_site_occupancy
  C  C0  4  0.08153731  0.30028393  0.19665005  1
  C  C1  4  0.15890965  0.26391510  0.18831719  1
  C  C2  4  0.17311801  0.59247437  0.71961324  1
  C  C3  4  0.20043498  -0.27246894  0.10586432  1
  C  C4  4  0.23381776  0.34117512  0.28554375  1
  C  C5  4  0.23774275  0.35077856  0.80994140  1
  C  C6  4  0.23776158  0.46525643  0.39582757  1
  C  C7  4  0.24747698  0.01211034  0.17539610  1
  S  S8  4  0.12959946  0.31598942  0.67231480  1
  S  S9  4  0.14871455  0.10901635  0.04918732  1
  S  S10  4  0.16575109  0.80218593  0.70632582  1
  N  N11  4  0.01913179  0.32630268  0.20342261  1
  N  N12  4  0.10456023  0.50457787  0.63232237  1
  N  N13  4  0.15154112  -0.37309420  0.03584760  1
  N  N14  4  0.24420215  0.56739055  0.48437528  1
