###############################################################################################
#
# CIF file generated by modified CIFWriter class 
# in pymatgen (v2025.03.10) https://pymatgen.org/
#
###############################################################################################
data_MACE-OFF23(L)_943fb55321d52cf
_symmetry_space_group_name_H-M   P2_1/c
_cell_length_a   9.70783006
_cell_length_b   6.87927948
_cell_length_c   13.68427115
_cell_angle_alpha   90.00000000
_cell_angle_beta   95.28766504
_cell_angle_gamma   90.00000000
_symmetry_Int_Tables_number   14
_chemical_formula_moiety   'C8 N4 S3'
_chemical_formula_sum   'C32 S12 N16'
_cell_volume   909.98604542
_cell_formula_units_Z   4
loop_
 _symmetry_equiv_pos_site_id
 _symmetry_equiv_pos_as_xyz
  1  'x, y, z'
  2  '-x, -y, -z'
  3  '-x, y+1/2, -z+1/2'
  4  'x, -y+1/2, z+1/2'
loop_
 _atom_site_type_symbol
 _atom_site_label
 _atom_site_symmetry_multiplicity
 _atom_site_fract_x
 _atom_site_fract_y
 _atom_site_fract_z
 _atom_site_occupancy
  C  C0  4  0.02829659  0.58216089  0.36997906  1
  C  C1  4  0.10995824  0.57387797  0.18372335  1
  C  C2  4  0.15805811  0.66969415  0.35244301  1
  C  C3  4  0.19875558  0.65953149  0.26136645  1
  C  C4  4  0.31551828  0.28988975  0.74183613  1
  C  C5  4  0.39741697  0.22076819  0.16095599  1
  C  C6  4  0.41675935  0.74685454  0.42819716  1
  C  C7  4  0.46066369  0.73153625  0.33216141  1
  S  S8  4  0.24572255  0.72424949  0.95666203  1
  S  S9  4  0.33225218  0.23112781  0.04071546  1
  S  S10  4  0.35700126  0.76395632  0.72107715  1
  N  N11  4  -0.07471100  0.50855374  0.38207814  1
  N  N12  4  0.04217753  0.99172198  0.61889088  1
  N  N13  4  0.25154415  0.20851072  0.30837493  1
  N  N14  4  0.48521687  0.25259699  0.49970396  1
