###############################################################################################
#
# CIF file generated by modified CIFWriter class 
# in pymatgen (v2025.03.10) https://pymatgen.org/
#
###############################################################################################
data_MACE-OFF23(L)_944e5445ff4669f
_symmetry_space_group_name_H-M   P222_1
_cell_length_a   7.34973244
_cell_length_b   13.19849784
_cell_length_c   9.87897804
_cell_angle_alpha   90.00000000
_cell_angle_beta   90.00000000
_cell_angle_gamma   90.00000000
_symmetry_Int_Tables_number   17
_chemical_formula_moiety   'C8 N4 S3'
_chemical_formula_sum   'C32 S12 N16'
_cell_volume   958.31449037
_cell_formula_units_Z   4
loop_
 _symmetry_equiv_pos_site_id
 _symmetry_equiv_pos_as_xyz
  1  'x, y, z'
  2  '-x, -y, z+1/2'
  3  'x, -y, -z'
  4  '-x, y, -z+1/2'
loop_
 _atom_site_type_symbol
 _atom_site_label
 _atom_site_symmetry_multiplicity
 _atom_site_fract_x
 _atom_site_fract_y
 _atom_site_fract_z
 _atom_site_occupancy
  C  C0  4  -0.22527149  0.38004182  0.70688337  1
  C  C1  4  -0.17617889  0.28661213  0.64456871  1
  C  C2  4  -0.05583792  0.26842005  0.54139453  1
  C  C3  4  -0.03496748  0.16177348  0.52587281  1
  C  C4  4  0.26534687  0.29722917  0.42518151  1
  C  C5  4  0.28452998  0.19632814  0.41123292  1
  C  C6  4  0.42839039  0.35693781  0.42751280  1
  C  C7  4  0.46168258  0.15137974  0.40094001  1
  S  S8  4  -0.25523864  0.17348564  0.70672112  1
  S  S9  4  0.05382556  0.35897785  0.44094759  1
  S  S10  4  0.10780307  0.10749623  0.40341867  1
  N  N11  4  -0.26268714  0.45151029  0.76711397  1
  N  N12  4  -0.12800154  0.10384797  0.60760055  1
  N  N13  4  0.39946146  0.11220873  1.10927608  1
  N  N14  4  0.43107060  0.39493542  1.07128390  1
