###############################################################################################
#
# CIF file generated by modified CIFWriter class 
# in pymatgen (v2025.03.10) https://pymatgen.org/
#
###############################################################################################
data_MACE-OFF23(L)_95a9b7863681175
_symmetry_space_group_name_H-M   P2_12_12_1
_cell_length_a   5.46591469
_cell_length_b   9.73618696
_cell_length_c   19.76372383
_cell_angle_alpha   90.00000000
_cell_angle_beta   90.00000000
_cell_angle_gamma   90.00000000
_symmetry_Int_Tables_number   19
_chemical_formula_moiety   'C8 N4 S3'
_chemical_formula_sum   'C32 S12 N16'
_cell_volume   1051.76939882
_cell_formula_units_Z   4
loop_
 _symmetry_equiv_pos_site_id
 _symmetry_equiv_pos_as_xyz
  1  'x, y, z'
  2  '-x+1/2, -y, z+1/2'
  3  'x+1/2, -y+1/2, -z'
  4  '-x, y+1/2, -z+1/2'
loop_
 _atom_site_type_symbol
 _atom_site_label
 _atom_site_symmetry_multiplicity
 _atom_site_fract_x
 _atom_site_fract_y
 _atom_site_fract_z
 _atom_site_occupancy
  C  C0  4  -0.00086048  0.53885440  0.35582637  1
  C  C1  4  0.01170469  0.39827257  0.97693761  1
  C  C2  4  0.04152762  0.20586644  0.72123071  1
  C  C3  4  0.09718970  0.65270960  0.23438570  1
  C  C4  4  0.09816589  0.62204585  0.16346238  1
  C  C5  4  0.19432928  0.61813613  0.38195108  1
  C  C6  4  0.21783552  0.44414783  0.93925860  1
  C  C7  4  0.22800853  0.26808600  0.76186046  1
  S  S8  4  -0.14950436  0.57938679  0.27940737  1
  S  S9  4  0.11085234  0.41333707  0.45679090  1
  S  S10  4  0.20399802  0.22642487  0.84817204  1
  N  N11  4  -0.15885941  0.35701096  1.00394220  1
  N  N12  4  -0.11326191  0.15128161  0.69273500  1
  N  N13  4  -0.06463435  0.43029131  0.39008544  1
  N  N14  4  0.09526030  0.59369487  0.10709688  1
