###############################################################################################
#
# CIF file generated by modified CIFWriter class 
# in pymatgen (v2025.03.10) https://pymatgen.org/
#
###############################################################################################
data_MACE-OFF23(L)_969dfc66cccd724
_symmetry_space_group_name_H-M   P2/c
_cell_length_a   15.81954886
_cell_length_b   10.48907415
_cell_length_c   6.03247134
_cell_angle_alpha   90.00000000
_cell_angle_beta   95.71612490
_cell_angle_gamma   90.00000000
_symmetry_Int_Tables_number   13
_chemical_formula_moiety   'C8 N4 S3'
_chemical_formula_sum   'C32 S12 N16'
_cell_volume   996.00526806
_cell_formula_units_Z   4
loop_
 _symmetry_equiv_pos_site_id
 _symmetry_equiv_pos_as_xyz
  1  'x, y, z'
  2  '-x, -y, -z'
  3  '-x, y, -z+1/2'
  4  'x, -y, z+1/2'
loop_
 _atom_site_type_symbol
 _atom_site_label
 _atom_site_symmetry_multiplicity
 _atom_site_fract_x
 _atom_site_fract_y
 _atom_site_fract_z
 _atom_site_occupancy
  C  C0  4  0.14971552  0.28081401  -0.02183593  1
  C  C1  4  0.15754711  0.35824350  -0.21238986  1
  C  C2  4  0.17568007  0.16846350  0.29922999  1
  C  C3  4  0.20850388  0.26128435  0.15811910  1
  C  C4  4  0.32713888  0.17614631  0.56011319  1
  C  C5  4  0.35657175  0.26537733  0.42790797  1
  C  C6  4  0.37797977  0.87367936  1.25059767  1
  C  C7  4  0.44156988  0.31223791  0.47609534  1
  S  S8  4  0.06167210  0.18913162  0.00014135  1
  S  S9  4  0.22740739  0.10135967  0.54202453  1
  S  S10  4  0.30537711  0.34148250  0.19327009  1
  N  N11  4  0.09996146  0.87589527  0.73566021  1
  N  N12  4  0.16295063  0.41561310  -0.37257544  1
  N  N13  4  0.41082646  0.08071328  0.90921561  1
  N  N14  4  0.49123101  0.64687399  0.49199540  1
