###############################################################################################
#
# CIF file generated by modified CIFWriter class 
# in pymatgen (v2025.03.10) https://pymatgen.org/
#
###############################################################################################
data_MACE-OFF23(L)_9b2ba44816a5da3
_symmetry_space_group_name_H-M   P-4
_cell_length_a   15.25885311
_cell_length_b   15.25885311
_cell_length_c   5.43693897
_cell_angle_alpha   90.00000000
_cell_angle_beta   90.00000000
_cell_angle_gamma   90.00000000
_symmetry_Int_Tables_number   81
_chemical_formula_moiety   'C8 N4 S3'
_chemical_formula_sum   'C32 S12 N16'
_cell_volume   1265.89662627
_cell_formula_units_Z   4
loop_
 _symmetry_equiv_pos_site_id
 _symmetry_equiv_pos_as_xyz
  1  'x, y, z'
  2  'y, -x, -z'
  3  '-x, -y, z'
  4  '-y, x, -z'
loop_
 _atom_site_type_symbol
 _atom_site_label
 _atom_site_symmetry_multiplicity
 _atom_site_fract_x
 _atom_site_fract_y
 _atom_site_fract_z
 _atom_site_occupancy
  C  C0  4  0.11779110  0.58779649  0.64774244  1
  C  C1  4  0.15291673  0.70153985  0.90060387  1
  C  C2  4  0.17057551  0.61546505  0.84803741  1
  C  C3  4  0.19384897  0.75246867  1.08725549  1
  C  C4  4  0.22720071  0.45302919  0.58100717  1
  C  C5  4  0.26157143  0.39440064  0.39921200  1
  C  C6  4  0.27950343  0.48211992  0.76261587  1
  C  C7  4  0.36898018  0.45328830  0.76440179  1
  S  S8  4  0.07427941  0.73937980  0.70289674  1
  S  S9  4  0.11579163  0.47912526  0.53927757  1
  S  S10  4  0.24615992  0.55112774  1.00453728  1
  N  N11  4  0.06584975  0.64673186  0.55191218  1
  N  N12  4  0.20816743  0.22852794  -0.23874651  1
  N  N13  4  0.28736365  0.34744801  0.25136144  1
  N  N14  4  0.42609097  0.56109571  0.24520416  1
