###############################################################################################
#
# CIF file generated by modified CIFWriter class 
# in pymatgen (v2025.03.10) https://pymatgen.org/
#
###############################################################################################
data_MACE-OFF23(L)_9de9491596421d1
_symmetry_space_group_name_H-M   P4_1
_cell_length_a   9.69718994
_cell_length_b   9.69718994
_cell_length_c   12.60297798
_cell_angle_alpha   90.00000000
_cell_angle_beta   90.00000000
_cell_angle_gamma   90.00000000
_symmetry_Int_Tables_number   76
_chemical_formula_moiety   'C8 N4 S3'
_chemical_formula_sum   'C32 S12 N16'
_cell_volume   1185.12724479
_cell_formula_units_Z   4
loop_
 _symmetry_equiv_pos_site_id
 _symmetry_equiv_pos_as_xyz
  1  'x, y, z'
  2  '-y, x, z+1/4'
  3  '-x, -y, z+1/2'
  4  'y, -x, z+3/4'
loop_
 _atom_site_type_symbol
 _atom_site_label
 _atom_site_symmetry_multiplicity
 _atom_site_fract_x
 _atom_site_fract_y
 _atom_site_fract_z
 _atom_site_occupancy
  C  C0  4  0.12830003  0.26087848  0.74374290  1
  C  C1  4  0.13446730  0.50705572  0.41332595  1
  C  C2  4  0.23704527  0.63427267  0.06673231  1
  C  C3  4  0.25652828  0.32947795  0.34142757  1
  C  C4  4  0.26087393  0.43376408  0.41501105  1
  C  C5  4  0.26481463  0.72399425  0.49742539  1
  C  C6  4  0.27990979  0.51667988  0.75417887  1
  C  C7  4  0.34548782  0.38458420  0.75041934  1
  S  S8  4  0.09911618  0.33007498  0.28025957  1
  S  S9  4  0.09957528  0.64742104  0.49728727  1
  S  S10  4  0.39919290  0.47297254  0.49797740  1
  N  N11  4  0.01062160  0.25001547  0.73927373  1
  N  N12  4  0.04198167  0.46335548  0.34613583  1
  N  N13  4  0.16650774  0.54284384  0.04680514  1
  N  N14  4  0.23996288  0.62809203  0.75671332  1
