###############################################################################################
#
# CIF file generated by modified CIFWriter class 
# in pymatgen (v2025.03.10) https://pymatgen.org/
#
###############################################################################################
data_MACE-OFF23(L)_a8946df6f3659ee
_symmetry_space_group_name_H-M   Pca2_1
_cell_length_a   9.63508269
_cell_length_b   13.71140653
_cell_length_c   7.25499082
_cell_angle_alpha   90.00000000
_cell_angle_beta   90.00000000
_cell_angle_gamma   90.00000000
_symmetry_Int_Tables_number   29
_chemical_formula_moiety   'C8 N4 S3'
_chemical_formula_sum   'C32 S12 N16'
_cell_volume   958.46072357
_cell_formula_units_Z   4
loop_
 _symmetry_equiv_pos_site_id
 _symmetry_equiv_pos_as_xyz
  1  'x, y, z'
  2  '-x, -y, z+1/2'
  3  '-x+1/2, y, z+1/2'
  4  'x+1/2, -y, z'
loop_
 _atom_site_type_symbol
 _atom_site_label
 _atom_site_symmetry_multiplicity
 _atom_site_fract_x
 _atom_site_fract_y
 _atom_site_fract_z
 _atom_site_occupancy
  C  C0  4  -0.18476555  0.18097978  0.06278896  1
  C  C1  4  -0.17803184  0.37071951  -0.04769318  1
  C  C2  4  -0.05935179  0.23562963  0.09172613  1
  C  C3  4  -0.05915744  0.33082847  0.04504099  1
  C  C4  4  0.10609073  0.11738704  0.71041481  1
  C  C5  4  0.14847517  0.21252108  0.65643186  1
  C  C6  4  0.21615125  0.34505183  0.09587984  1
  C  C7  4  0.21644401  0.24446302  0.14620041  1
  S  S8  4  0.03748950  0.30522925  0.60056546  1
  S  S9  4  0.06918113  0.41974552  0.07643821  1
  S  S10  4  0.07520413  0.16833619  0.19251026  1
  N  N11  4  0.07847498  0.04093665  0.76338023  1
  N  N12  4  0.16233703  0.38465584  0.56783557  1
  N  N13  4  0.21019183  0.85707708  0.04234871  1
  N  N14  4  0.23035201  0.59736966  -0.12876194  1
