###############################################################################################
#
# CIF file generated by modified CIFWriter class 
# in pymatgen (v2025.03.10) https://pymatgen.org/
#
###############################################################################################
data_MACE-OFF23(L)_a93250e8da49b74
_symmetry_space_group_name_H-M   P4_3
_cell_length_a   9.34893059
_cell_length_b   9.34893059
_cell_length_c   11.83458375
_cell_angle_alpha   90.00000000
_cell_angle_beta   90.00000000
_cell_angle_gamma   90.00000000
_symmetry_Int_Tables_number   78
_chemical_formula_moiety   'C8 N4 S3'
_chemical_formula_sum   'C32 S12 N16'
_cell_volume   1034.37224449
_cell_formula_units_Z   4
loop_
 _symmetry_equiv_pos_site_id
 _symmetry_equiv_pos_as_xyz
  1  'x, y, z'
  2  '-y, x, z+3/4'
  3  '-x, -y, z+1/2'
  4  'y, -x, z+1/4'
loop_
 _atom_site_type_symbol
 _atom_site_label
 _atom_site_symmetry_multiplicity
 _atom_site_fract_x
 _atom_site_fract_y
 _atom_site_fract_z
 _atom_site_occupancy
  C  C0  4  -0.10103726  0.67764880  0.09634387  1
  C  C1  4  0.01296723  0.11931763  0.19656103  1
  C  C2  4  0.03962351  0.65165084  0.13708292  1
  C  C3  4  0.08303246  0.53089472  0.19323302  1
  C  C4  4  0.08534625  0.25049087  0.22250412  1
  C  C5  4  0.12676489  0.68987651  0.46679984  1
  C  C6  4  0.22825765  0.25391881  0.23528929  1
  C  C7  4  0.23242857  0.53871281  0.21342095  1
  S  S8  4  -0.03016925  0.39611564  0.24160216  1
  S  S9  4  0.18217210  0.76448031  0.12074473  1
  S  S10  4  0.33134611  0.40176572  0.27865504  1
  N  N11  4  -0.21572214  0.69256391  0.06376535  1
  N  N12  4  0.01612782  1.05045603  0.43103309  1
  N  N13  4  0.02545104  0.62267791  0.45330976  1
  N  N14  4  0.29665171  0.65561551  0.18096031  1
