###############################################################################################
#
# CIF file generated by modified CIFWriter class 
# in pymatgen (v2025.03.10) https://pymatgen.org/
#
###############################################################################################
data_MACE-OFF23(L)_aa13e67740c47e6
_symmetry_space_group_name_H-M   P2_1/m
_cell_length_a   6.06364817
_cell_length_b   27.45654686
_cell_length_c   6.70925182
_cell_angle_alpha   90.00000000
_cell_angle_beta   104.25776749
_cell_angle_gamma   90.00000000
_symmetry_Int_Tables_number   11
_chemical_formula_moiety   'C8 N4 S3'
_chemical_formula_sum   'C32 S12 N16'
_cell_volume   1082.59571035
_cell_formula_units_Z   4
loop_
 _symmetry_equiv_pos_site_id
 _symmetry_equiv_pos_as_xyz
  1  'x, y, z'
  2  '-x, -y, -z'
  3  '-x, y+1/2, -z'
  4  'x, -y+1/2, z'
loop_
 _atom_site_type_symbol
 _atom_site_label
 _atom_site_symmetry_multiplicity
 _atom_site_fract_x
 _atom_site_fract_y
 _atom_site_fract_z
 _atom_site_occupancy
  C  C0  4  0.16171852  0.67063613  0.72123872  1
  C  C1  4  0.17331659  -0.00383616  -0.20404872  1
  C  C2  4  0.22250803  0.04378088  -0.11655001  1
  C  C3  4  0.29954112  0.04811914  0.08904744  1
  C  C4  4  0.30145614  0.65766543  0.91674827  1
  C  C5  4  0.32288732  0.49482544  0.21419166  1
  C  C6  4  0.42193840  0.12582701  -0.17628575  1
  C  C7  4  0.49504791  0.62976792  0.95964606  1
  S  S8  4  0.17571171  0.09225159  -0.29205288  1
  S  S9  4  0.24482443  0.82330723  1.14204141  1
  S  S10  4  0.37455160  0.10341444  0.21978073  1
  N  N11  4  0.04416200  0.68221032  0.56683023  1
  N  N12  4  0.13607759  -0.04255360  -0.26839806  1
  N  N13  4  0.33518233  -0.03011723  0.30829532  1
  N  N14  4  0.46327415  0.64847587  1.28916524  1
