###############################################################################################
#
# CIF file generated by modified CIFWriter class 
# in pymatgen (v2025.03.10) https://pymatgen.org/
#
###############################################################################################
data_MACE-OFF23(L)_ab2459513327c9a
_symmetry_space_group_name_H-M   P2/c
_cell_length_a   9.01132474
_cell_length_b   3.80997653
_cell_length_c   27.30334662
_cell_angle_alpha   90.00000000
_cell_angle_beta   101.43845989
_cell_angle_gamma   90.00000000
_symmetry_Int_Tables_number   13
_chemical_formula_moiety   'C8 N4 S3'
_chemical_formula_sum   'C32 S12 N16'
_cell_volume   918.78558499
_cell_formula_units_Z   4
loop_
 _symmetry_equiv_pos_site_id
 _symmetry_equiv_pos_as_xyz
  1  'x, y, z'
  2  '-x, -y, -z'
  3  '-x, y, -z+1/2'
  4  'x, -y, z+1/2'
loop_
 _atom_site_type_symbol
 _atom_site_label
 _atom_site_symmetry_multiplicity
 _atom_site_fract_x
 _atom_site_fract_y
 _atom_site_fract_z
 _atom_site_occupancy
  C  C0  4  0.04017161  0.25949807  0.55973154  1
  C  C1  4  0.09342956  0.75476792  0.16152157  1
  C  C2  4  0.19423116  0.24800690  0.58658055  1
  C  C3  4  0.22090590  0.76343867  0.13710511  1
  C  C4  4  0.28903047  -0.19748032  0.79482881  1
  C  C5  4  0.35338034  -0.10747972  0.84511484  1
  C  C6  4  0.48236648  0.07493990  0.58508546  1
  C  C7  4  0.48953432  0.05848876  0.86178821  1
  S  S8  4  0.27396629  1.21947986  0.39480050  1
  S  S9  4  0.32340239  0.26254721  0.54641829  1
  S  S10  4  0.39802321  0.22784173  0.67793615  1
  N  N11  4  -0.08228385  0.73189520  0.03784722  1
  N  N12  4  -0.01214791  0.74169996  0.17904490  1
  N  N13  4  0.24325225  1.27885510  0.25415845  1
  N  N14  4  0.41418434  1.06233718  0.43645954  1
