###############################################################################################
#
# CIF file generated by modified CIFWriter class 
# in pymatgen (v2025.03.10) https://pymatgen.org/
#
###############################################################################################
data_MACE-OFF23(L)_acfbec6819fc62f
_symmetry_space_group_name_H-M   Pna2_1
_cell_length_a   11.80475740
_cell_length_b   5.70473289
_cell_length_c   16.84552066
_cell_angle_alpha   90.00000000
_cell_angle_beta   90.00000000
_cell_angle_gamma   90.00000000
_symmetry_Int_Tables_number   33
_chemical_formula_moiety   'C8 N4 S3'
_chemical_formula_sum   'C32 S12 N16'
_cell_volume   1134.42769197
_cell_formula_units_Z   4
loop_
 _symmetry_equiv_pos_site_id
 _symmetry_equiv_pos_as_xyz
  1  'x, y, z'
  2  '-x, -y, z+1/2'
  3  '-x+1/2, y+1/2, z+1/2'
  4  'x+1/2, -y+1/2, z'
loop_
 _atom_site_type_symbol
 _atom_site_label
 _atom_site_symmetry_multiplicity
 _atom_site_fract_x
 _atom_site_fract_y
 _atom_site_fract_z
 _atom_site_occupancy
  C  C0  4  -0.06863476  0.95350533  -0.00359975  1
  C  C1  4  -0.02651313  0.74347714  0.03233226  1
  C  C2  4  -0.01485082  0.57178035  0.17753262  1
  C  C3  4  0.07798162  0.66388867  0.01573593  1
  C  C4  4  0.09512573  0.48846105  0.15897266  1
  C  C5  4  0.15263780  0.78599256  -0.03694701  1
  C  C6  4  0.15865588  0.47542450  0.22697961  1
  C  C7  4  0.22463053  -0.08506684  0.73071748  1
  S  S8  4  -0.11720078  0.61006570  0.10257648  1
  S  S9  4  0.07633821  0.55721934  0.30599054  1
  S  S10  4  0.13923578  0.41788301  0.06299327  1
  N  N11  4  -0.10450781  1.12302385  -0.03022291  1
  N  N12  4  -0.03546828  0.61537420  0.25213149  1
  N  N13  4  0.12993424  -0.12995439  0.72945635  1
  N  N14  4  0.21774180  0.88289753  -0.07551408  1
