###############################################################################################
#
# CIF file generated by modified CIFWriter class 
# in pymatgen (v2025.03.10) https://pymatgen.org/
#
###############################################################################################
data_MACE-OFF23(L)_ae83824234ff4e0
_symmetry_space_group_name_H-M   Pnc2
_cell_length_a   7.90431154
_cell_length_b   14.34630977
_cell_length_c   9.19763927
_cell_angle_alpha   90.00000000
_cell_angle_beta   90.00000000
_cell_angle_gamma   90.00000000
_symmetry_Int_Tables_number   30
_chemical_formula_moiety   'C8 N4 S3'
_chemical_formula_sum   'C32 S12 N16'
_cell_volume   1042.99115475
_cell_formula_units_Z   4
loop_
 _symmetry_equiv_pos_site_id
 _symmetry_equiv_pos_as_xyz
  1  'x, y, z'
  2  '-x, -y, z'
  3  '-x, y+1/2, z+1/2'
  4  'x, -y+1/2, z+1/2'
loop_
 _atom_site_type_symbol
 _atom_site_label
 _atom_site_symmetry_multiplicity
 _atom_site_fract_x
 _atom_site_fract_y
 _atom_site_fract_z
 _atom_site_occupancy
  C  C0  4  -0.30915013  0.17847942  0.45606162  1
  C  C1  4  -0.25734865  0.13377087  0.87762413  1
  C  C2  4  -0.14239753  0.21501951  0.43598197  1
  C  C3  4  -0.11699769  0.19521131  0.90023373  1
  C  C4  4  0.15923043  0.17133021  0.32902480  1
  C  C5  4  0.19277460  0.23352966  0.79855641  1
  C  C6  4  0.24884417  0.01885038  0.22078343  1
  C  C7  4  0.25909536  0.11690653  0.24134682  1
  S  S8  4  0.02017290  0.13286580  0.46296599  1
  S  S9  4  0.08135970  0.14074877  0.87874770  1
  S  S10  4  0.38941628  0.18664274  0.14003090  1
  N  N11  4  -0.44072848  0.14688069  0.47453605  1
  N  N12  4  -0.36701453  0.08245532  0.86035536  1
  N  N13  4  0.23294316  -0.05916335  0.19646708  1
  N  N14  4  0.31025883  0.21607699  0.70286556  1
