###############################################################################################
#
# CIF file generated by modified CIFWriter class 
# in pymatgen (v2025.03.10) https://pymatgen.org/
#
###############################################################################################
data_MACE-OFF23(L)_af041c466235aa
_symmetry_space_group_name_H-M   Pca2_1
_cell_length_a   12.25048111
_cell_length_b   13.25051087
_cell_length_c   6.66703479
_cell_angle_alpha   90.00000000
_cell_angle_beta   90.00000000
_cell_angle_gamma   90.00000000
_symmetry_Int_Tables_number   29
_chemical_formula_moiety   'C8 N4 S3'
_chemical_formula_sum   'C32 S12 N16'
_cell_volume   1082.22730888
_cell_formula_units_Z   4
loop_
 _symmetry_equiv_pos_site_id
 _symmetry_equiv_pos_as_xyz
  1  'x, y, z'
  2  '-x, -y, z+1/2'
  3  '-x+1/2, y, z+1/2'
  4  'x+1/2, -y, z'
loop_
 _atom_site_type_symbol
 _atom_site_label
 _atom_site_symmetry_multiplicity
 _atom_site_fract_x
 _atom_site_fract_y
 _atom_site_fract_z
 _atom_site_occupancy
  C  C0  4  -0.13143042  0.21449293  0.39288996  1
  C  C1  4  -0.04184213  0.21276994  0.53073868  1
  C  C2  4  0.04369004  0.15117410  0.50303869  1
  C  C3  4  0.04893033  0.08453239  0.33442485  1
  C  C4  4  0.05817887  0.52430939  0.76311683  1
  C  C5  4  0.08524104  0.33918240  0.72721577  1
  C  C6  4  0.12280426  0.43579701  0.75052417  1
  C  C7  4  0.17570366  0.27315620  0.70444399  1
  S  S8  4  -0.05036257  0.29971027  0.73142795  1
  S  S9  4  0.15798713  0.14330775  0.66438299  1
  S  S10  4  0.23757305  0.43637742  0.25059717  1
  N  N11  4  -0.20300061  0.21788260  0.28204651  1
  N  N12  4  0.00381649  0.59490918  0.76865995  1
  N  N13  4  0.05629421  0.02919852  0.20273565  1
  N  N14  4  0.22739323  0.31412492  0.21438144  1
