###############################################################################################
#
# CIF file generated by modified CIFWriter class 
# in pymatgen (v2025.03.10) https://pymatgen.org/
#
###############################################################################################
data_MACE-OFF23(L)_af4d69f998bfe31
_symmetry_space_group_name_H-M   P2_1/c
_cell_length_a   13.03146735
_cell_length_b   9.70527915
_cell_length_c   7.62851575
_cell_angle_alpha   90.00000000
_cell_angle_beta   92.83331711
_cell_angle_gamma   90.00000000
_symmetry_Int_Tables_number   14
_chemical_formula_moiety   'C8 N4 S3'
_chemical_formula_sum   'C32 S12 N16'
_cell_volume   963.62969794
_cell_formula_units_Z   4
loop_
 _symmetry_equiv_pos_site_id
 _symmetry_equiv_pos_as_xyz
  1  'x, y, z'
  2  '-x, -y, -z'
  3  '-x, y+1/2, -z+1/2'
  4  'x, -y+1/2, z+1/2'
loop_
 _atom_site_type_symbol
 _atom_site_label
 _atom_site_symmetry_multiplicity
 _atom_site_fract_x
 _atom_site_fract_y
 _atom_site_fract_z
 _atom_site_occupancy
  C  C0  4  0.09831830  1.02628393  -0.12313743  1
  C  C1  4  0.17915969  0.46048937  -0.05110318  1
  C  C2  4  0.18935217  0.98893560  -0.02414402  1
  C  C3  4  0.21313083  0.86039977  0.04232894  1
  C  C4  4  0.21882177  0.91462949  0.52713320  1
  C  C5  4  0.31486539  0.86326686  0.11862114  1
  C  C6  4  0.31661838  0.91299685  0.59353420  1
  C  C7  4  0.37936676  1.03341813  0.57955752  1
  S  S8  4  0.12908134  0.77990072  0.53557992  1
  S  S9  4  0.28976307  0.40105684  0.51838820  1
  S  S10  4  0.38120521  0.72032075  0.20869963  1
  N  N11  4  0.02615131  0.44961908  0.28984447  1
  N  N12  4  0.15041958  0.35737476  -0.10857709  1
  N  N13  4  0.36282761  0.51866993  0.61456772  1
  N  N14  4  0.43001457  1.12972381  0.57309897  1
