###############################################################################################
#
# CIF file generated by modified CIFWriter class 
# in pymatgen (v2025.03.10) https://pymatgen.org/
#
###############################################################################################
data_MACE-OFF23(L)_b1478a251c34185
_symmetry_space_group_name_H-M   P4_1
_cell_length_a   10.04362619
_cell_length_b   10.04362619
_cell_length_c   11.18796730
_cell_angle_alpha   90.00000000
_cell_angle_beta   90.00000000
_cell_angle_gamma   90.00000000
_symmetry_Int_Tables_number   76
_chemical_formula_moiety   'C8 N4 S3'
_chemical_formula_sum   'C32 S12 N16'
_cell_volume   1128.57979005
_cell_formula_units_Z   4
loop_
 _symmetry_equiv_pos_site_id
 _symmetry_equiv_pos_as_xyz
  1  'x, y, z'
  2  '-y, x, z+1/4'
  3  '-x, -y, z+1/2'
  4  'y, -x, z+3/4'
loop_
 _atom_site_type_symbol
 _atom_site_label
 _atom_site_symmetry_multiplicity
 _atom_site_fract_x
 _atom_site_fract_y
 _atom_site_fract_z
 _atom_site_occupancy
  C  C0  4  0.14317399  0.68035732  0.53135094  1
  C  C1  4  0.15224679  0.50763023  0.39973106  1
  C  C2  4  0.17020641  0.38157574  0.34380236  1
  C  C3  4  0.17502837  0.54382919  0.51619742  1
  C  C4  4  0.21222145  0.41498472  1.00072814  1
  C  C5  4  0.30459511  0.31831492  0.95543747  1
  C  C6  4  0.35002982  0.56695059  0.68736958  1
  C  C7  4  0.47774487  0.48453296  0.95289475  1
  S  S8  4  0.09305951  0.64266481  0.32232033  1
  S  S9  4  0.16194733  0.76369600  0.66924693  1
  S  S10  4  0.23365484  0.44750669  0.63529478  1
  N  N11  4  0.10001919  0.74372185  0.43720768  1
  N  N12  4  0.13557762  0.48949637  1.03691296  1
  N  N13  4  0.18311471  0.28265135  0.29367975  1
  N  N14  4  0.40738748  0.51411611  0.20967962  1
