###############################################################################################
#
# CIF file generated by modified CIFWriter class 
# in pymatgen (v2025.03.10) https://pymatgen.org/
#
###############################################################################################
data_MACE-OFF23(L)_b3d5d3952402c3d
_symmetry_space_group_name_H-M   P4_1
_cell_length_a   14.27365121
_cell_length_b   14.27365121
_cell_length_c   4.91580795
_cell_angle_alpha   90.00000000
_cell_angle_beta   90.00000000
_cell_angle_gamma   90.00000000
_symmetry_Int_Tables_number   76
_chemical_formula_moiety   'C8 N4 S3'
_chemical_formula_sum   'C32 S12 N16'
_cell_volume   1001.53254897
_cell_formula_units_Z   4
loop_
 _symmetry_equiv_pos_site_id
 _symmetry_equiv_pos_as_xyz
  1  'x, y, z'
  2  '-y, x, z+1/4'
  3  '-x, -y, z+1/2'
  4  'y, -x, z+3/4'
loop_
 _atom_site_type_symbol
 _atom_site_label
 _atom_site_symmetry_multiplicity
 _atom_site_fract_x
 _atom_site_fract_y
 _atom_site_fract_z
 _atom_site_occupancy
  C  C0  4  -0.12929822  0.70567155  0.36517942  1
  C  C1  4  -0.03066292  0.68708904  0.35774033  1
  C  C2  4  -0.01728212  0.79705845  -0.00836648  1
  C  C3  4  0.02431685  0.73122620  0.17637591  1
  C  C4  4  0.10938642  0.56527927  0.48016934  1
  C  C5  4  0.16438959  0.60930511  0.27571766  1
  C  C6  4  0.24091971  0.55373451  0.22237606  1
  C  C7  4  0.31246958  0.57402509  0.02971387  1
  S  S8  4  0.00159778  0.60463707  0.60581970  1
  S  S9  4  0.14489629  0.71757144  0.11990086  1
  S  S10  4  0.24002868  0.45711808  0.42745977  1
  N  N11  4  -0.20868857  0.71709380  0.37892335  1
  N  N12  4  -0.04983798  0.84815949  -0.16177516  1
  N  N13  4  0.14126827  0.48636139  0.57704703  1
  N  N14  4  0.36931106  0.59395061  -0.12510350  1
