###############################################################################################
#
# CIF file generated by modified CIFWriter class 
# in pymatgen (v2025.03.10) https://pymatgen.org/
#
###############################################################################################
data_MACE-OFF23(L)_b478bc16e93a381
_symmetry_space_group_name_H-M   P4_1
_cell_length_a   12.35816445
_cell_length_b   12.35816445
_cell_length_c   7.03237011
_cell_angle_alpha   90.00000000
_cell_angle_beta   90.00000000
_cell_angle_gamma   90.00000000
_symmetry_Int_Tables_number   76
_chemical_formula_moiety   'C8 N4 S3'
_chemical_formula_sum   'C32 S12 N16'
_cell_volume   1074.01330056
_cell_formula_units_Z   4
loop_
 _symmetry_equiv_pos_site_id
 _symmetry_equiv_pos_as_xyz
  1  'x, y, z'
  2  '-y, x, z+1/4'
  3  '-x, -y, z+1/2'
  4  'y, -x, z+3/4'
loop_
 _atom_site_type_symbol
 _atom_site_label
 _atom_site_symmetry_multiplicity
 _atom_site_fract_x
 _atom_site_fract_y
 _atom_site_fract_z
 _atom_site_occupancy
  C  C0  4  -0.11028223  0.39847521  0.14752897  1
  C  C1  4  -0.07191905  0.41715759  0.54022141  1
  C  C2  4  -0.03098264  0.33239049  0.23950550  1
  C  C3  4  -0.00940403  0.34487364  0.42548014  1
  C  C4  4  0.17364487  0.28693627  0.16538030  1
  C  C5  4  0.19619491  0.30480774  0.36011557  1
  C  C6  4  0.30023778  0.34169089  0.37857617  1
  C  C7  4  0.35349597  0.37125187  0.55038295  1
  S  S8  4  0.04392755  0.24647458  0.08797094  1
  S  S9  4  0.10101195  0.28198303  0.54036172  1
  S  S10  4  0.34837683  0.64037694  -0.09107208  1
  N  N11  4  -0.16828725  0.45575871  0.06945671  1
  N  N12  4  -0.12114634  0.47387353  0.63637867  1
  N  N13  4  0.25171138  0.30533770  0.04473559  1
  N  N14  4  0.39428174  0.60298046  0.43851198  1
