###############################################################################################
#
# CIF file generated by modified CIFWriter class 
# in pymatgen (v2025.03.10) https://pymatgen.org/
#
###############################################################################################
data_MACE-OFF23(L)_b5572ec05adcf7a
_symmetry_space_group_name_H-M   P2_1/c
_cell_length_a   9.63563782
_cell_length_b   7.16128272
_cell_length_c   14.36461298
_cell_angle_alpha   90.00000000
_cell_angle_beta   76.00133804
_cell_angle_gamma   90.00000000
_symmetry_Int_Tables_number   14
_chemical_formula_moiety   'C8 N4 S3'
_chemical_formula_sum   'C32 S12 N16'
_cell_volume   961.77141089
_cell_formula_units_Z   4
loop_
 _symmetry_equiv_pos_site_id
 _symmetry_equiv_pos_as_xyz
  1  'x, y, z'
  2  '-x, -y, -z'
  3  '-x, y+1/2, -z+1/2'
  4  'x, -y+1/2, z+1/2'
loop_
 _atom_site_type_symbol
 _atom_site_label
 _atom_site_symmetry_multiplicity
 _atom_site_fract_x
 _atom_site_fract_y
 _atom_site_fract_z
 _atom_site_occupancy
  C  C0  4  0.15590077  0.75616464  1.01441779  1
  C  C1  4  0.15780480  -0.25094216  0.31571875  1
  C  C2  4  0.17490670  -0.08362339  0.36659473  1
  C  C3  4  0.17654510  -0.08609893  0.46002193  1
  C  C4  4  0.30102119  0.24935225  0.84508156  1
  C  C5  4  0.30488300  0.24895214  0.44305544  1
  C  C6  4  0.40406076  0.37104652  0.29667955  1
  C  C7  4  0.44117070  0.08218908  0.69764031  1
  S  S8  4  0.18216109  0.12142453  0.29674772  1
  S  S9  4  0.19228409  0.11021969  0.53025056  1
  S  S10  4  0.49082618  0.47107173  0.37462224  1
  N  N11  4  0.13438244  0.88793343  1.06122139  1
  N  N12  4  0.14325925  -0.38151975  0.27254802  1
  N  N13  4  0.39923374  0.14359555  0.96762214  1
  N  N14  4  0.47788495  0.03969919  0.61836992  1
