###############################################################################################
#
# CIF file generated by modified CIFWriter class 
# in pymatgen (v2025.03.10) https://pymatgen.org/
#
###############################################################################################
data_MACE-OFF23(L)_b64534c2e6f14d5
_symmetry_space_group_name_H-M   P4_1
_cell_length_a   10.19163430
_cell_length_b   10.19163430
_cell_length_c   9.83298058
_cell_angle_alpha   90.00000000
_cell_angle_beta   90.00000000
_cell_angle_gamma   90.00000000
_symmetry_Int_Tables_number   76
_chemical_formula_moiety   'C8 N4 S3'
_chemical_formula_sum   'C32 S12 N16'
_cell_volume   1021.34588922
_cell_formula_units_Z   4
loop_
 _symmetry_equiv_pos_site_id
 _symmetry_equiv_pos_as_xyz
  1  'x, y, z'
  2  '-y, x, z+1/4'
  3  '-x, -y, z+1/2'
  4  'y, -x, z+3/4'
loop_
 _atom_site_type_symbol
 _atom_site_label
 _atom_site_symmetry_multiplicity
 _atom_site_fract_x
 _atom_site_fract_y
 _atom_site_fract_z
 _atom_site_occupancy
  C  C0  4  0.08830129  0.32215102  0.55483976  1
  C  C1  4  0.15693739  0.24953022  0.17908942  1
  C  C2  4  0.19040828  0.30916098  0.30635482  1
  C  C3  4  0.20879493  0.25358484  0.73699702  1
  C  C4  4  0.21502535  0.68527474  0.57211193  1
  C  C5  4  0.21658762  0.30427925  0.60788225  1
  C  C6  4  0.25684274  0.57784499  0.02748051  1
  C  C7  4  0.30313878  0.68695331  0.10550903  1
  S  S8  4  0.04711598  0.23854565  0.78231262  1
  S  S9  4  0.05630389  0.38223142  0.39080378  1
  S  S10  4  0.34979207  0.64122473  0.27132728  1
  N  N11  4  -0.00811421  0.29109553  0.63572204  1
  N  N12  4  0.12415382  0.19631365  0.08210313  1
  N  N13  4  0.18177226  0.59964980  0.63963365  1
  N  N14  4  0.22836290  0.48314975  -0.02839684  1
