###############################################################################################
#
# CIF file generated by modified CIFWriter class 
# in pymatgen (v2025.03.10) https://pymatgen.org/
#
###############################################################################################
data_MACE-OFF23(L)_b74ba47b7d4ea02
_symmetry_space_group_name_H-M   Cc
_cell_length_a   9.31792441
_cell_length_b   9.07739962
_cell_length_c   12.53110440
_cell_angle_alpha   90.00000000
_cell_angle_beta   107.87590486
_cell_angle_gamma   90.00000000
_symmetry_Int_Tables_number   9
_chemical_formula_moiety   'C8 N4 S3'
_chemical_formula_sum   'C32 S12 N16'
_cell_volume   1008.74364917
_cell_formula_units_Z   4
loop_
 _symmetry_equiv_pos_site_id
 _symmetry_equiv_pos_as_xyz
  1  'x, y, z'
  2  'x, -y, z+1/2'
  3  'x+1/2, y+1/2, z'
  4  'x+1/2, -y+1/2, z+1/2'
loop_
 _atom_site_type_symbol
 _atom_site_label
 _atom_site_symmetry_multiplicity
 _atom_site_fract_x
 _atom_site_fract_y
 _atom_site_fract_z
 _atom_site_occupancy
  C  C0  4  0.02632544  0.85834340  0.35080040  1
  C  C1  4  0.03471979  0.07448767  0.95519026  1
  C  C2  4  0.09330283  0.24744889  0.70794206  1
  C  C3  4  0.14657430  0.18521016  0.81730452  1
  C  C4  4  0.36797726  0.19527773  0.69095152  1
  C  C5  4  0.41858943  0.14781398  0.79775446  1
  C  C6  4  0.44338230  0.15204403  0.61213680  1
  C  C7  4  0.55771712  0.93163481  0.33687014  1
  S  S8  4  -0.13799662  0.81307771  0.24884345  1
  S  S9  4  0.21318174  0.31333855  0.63426176  1
  S  S10  4  0.33339805  0.81862206  0.40217607  1
  N  N11  4  -0.05240242  0.74334485  0.16396519  1
  N  N12  4  0.04392843  0.02078151  1.04000772  1
  N  N13  4  0.50117255  0.11739376  0.54728976  1
  N  N14  4  0.67338393  0.01272519  0.87149984  1
