###############################################################################################
#
# CIF file generated by modified CIFWriter class 
# in pymatgen (v2025.03.10) https://pymatgen.org/
#
###############################################################################################
data_MACE-OFF23(L)_ba943f1da9d74a1
_symmetry_space_group_name_H-M   P2/c
_cell_length_a   18.73213169
_cell_length_b   9.31960290
_cell_length_c   6.06040185
_cell_angle_alpha   90.00000000
_cell_angle_beta   99.25439319
_cell_angle_gamma   90.00000000
_symmetry_Int_Tables_number   13
_chemical_formula_moiety   'C8 N4 S3'
_chemical_formula_sum   'C32 S12 N16'
_cell_volume   1044.22998949
_cell_formula_units_Z   4
loop_
 _symmetry_equiv_pos_site_id
 _symmetry_equiv_pos_as_xyz
  1  'x, y, z'
  2  '-x, -y, -z'
  3  '-x, y, -z+1/2'
  4  'x, -y, z+1/2'
loop_
 _atom_site_type_symbol
 _atom_site_label
 _atom_site_symmetry_multiplicity
 _atom_site_fract_x
 _atom_site_fract_y
 _atom_site_fract_z
 _atom_site_occupancy
  C  C0  4  0.08596454  0.30136388  -0.38949006  1
  C  C1  4  0.11517745  0.86821950  0.51660501  1
  C  C2  4  0.15669183  0.24954324  -0.30253902  1
  C  C3  4  0.16896915  0.83196882  0.38228139  1
  C  C4  4  0.30103968  0.70139456  0.22676738  1
  C  C5  4  0.31216116  0.79116035  0.41800108  1
  C  C6  4  0.38019007  0.76896990  0.53511620  1
  C  C7  4  0.40752451  0.16269820  0.24108536  1
  S  S8  4  0.22146814  0.29837897  -0.47148331  1
  S  S9  4  0.25129646  0.91497226  0.49348380  1
  S  S10  4  0.42410285  0.64594923  0.39703771  1
  N  N11  4  0.03029564  0.65827095  0.02743674  1
  N  N12  4  0.08115125  0.09313605  0.14648499  1
  N  N13  4  0.35498496  0.38157420  -0.30152107  1
  N  N14  4  0.42464836  0.10557144  0.40922220  1
