###############################################################################################
#
# CIF file generated by modified CIFWriter class 
# in pymatgen (v2025.03.10) https://pymatgen.org/
#
###############################################################################################
data_MACE-OFF23(L)_bcfaa6c18708de
_symmetry_space_group_name_H-M   Pna2_1
_cell_length_a   11.97552441
_cell_length_b   11.86069914
_cell_length_c   6.89403219
_cell_angle_alpha   90.00000000
_cell_angle_beta   90.00000000
_cell_angle_gamma   90.00000000
_symmetry_Int_Tables_number   33
_chemical_formula_moiety   'C8 N4 S3'
_chemical_formula_sum   'C32 S12 N16'
_cell_volume   979.21517890
_cell_formula_units_Z   4
loop_
 _symmetry_equiv_pos_site_id
 _symmetry_equiv_pos_as_xyz
  1  'x, y, z'
  2  '-x, -y, z+1/2'
  3  '-x+1/2, y+1/2, z+1/2'
  4  'x+1/2, -y+1/2, z'
loop_
 _atom_site_type_symbol
 _atom_site_label
 _atom_site_symmetry_multiplicity
 _atom_site_fract_x
 _atom_site_fract_y
 _atom_site_fract_z
 _atom_site_occupancy
  C  C0  4  -0.12985705  0.13907286  -0.13112042  1
  C  C1  4  -0.02035804  0.17882104  -0.08446747  1
  C  C2  4  0.03928961  -0.01529133  -0.06584336  1
  C  C3  4  0.06058864  0.10298911  -0.04684386  1
  C  C4  4  0.07403534  0.32844748  0.14438484  1
  C  C5  4  0.15754079  0.24786887  0.18868152  1
  C  C6  4  0.20074887  0.27022440  0.36878880  1
  C  C7  4  0.22001631  0.70375121  0.97112519  1
  S  S8  4  -0.00398545  0.32601754  -0.07200914  1
  S  S9  4  0.13715747  0.38780141  0.46177565  1
  S  S10  4  0.19515356  0.13704665  0.03567574  1
  N  N11  4  -0.21776586  0.10491591  -0.16163830  1
  N  N12  4  0.02445198  -0.11064125  -0.08078481  1
  N  N13  4  0.05565850  0.40602422  0.27406590  1
  N  N14  4  0.15782700  0.64773394  1.05344927  1
