###############################################################################################
#
# CIF file generated by modified CIFWriter class 
# in pymatgen (v2025.03.10) https://pymatgen.org/
#
###############################################################################################
data_MACE-OFF23(L)_bea380b7fc4db4c
_symmetry_space_group_name_H-M   P2_12_12_1
_cell_length_a   9.72026823
_cell_length_b   13.47888886
_cell_length_c   7.45901519
_cell_angle_alpha   90.00000000
_cell_angle_beta   90.00000000
_cell_angle_gamma   90.00000000
_symmetry_Int_Tables_number   19
_chemical_formula_moiety   'C8 N4 S3'
_chemical_formula_sum   'C32 S12 N16'
_cell_volume   977.26835009
_cell_formula_units_Z   4
loop_
 _symmetry_equiv_pos_site_id
 _symmetry_equiv_pos_as_xyz
  1  'x, y, z'
  2  '-x, y+1/2, -z+1/2'
  3  '-x+1/2, -y, z+1/2'
  4  'x+1/2, -y+1/2, -z'
loop_
 _atom_site_type_symbol
 _atom_site_label
 _atom_site_symmetry_multiplicity
 _atom_site_fract_x
 _atom_site_fract_y
 _atom_site_fract_z
 _atom_site_occupancy
  C  C0  4  -0.03427904  0.64857709  0.61812489  1
  C  C1  4  -0.02411200  0.42514729  0.10452688  1
  C  C2  4  -0.01714802  0.63041120  0.13183665  1
  C  C3  4  0.00265737  0.54860137  0.58181925  1
  C  C4  4  0.09549783  0.57870405  0.05040987  1
  C  C5  4  0.09584779  0.47863763  0.04726452  1
  C  C6  4  0.13073165  0.41184705  0.51748408  1
  C  C7  4  0.13086167  0.51698707  0.52932620  1
  S  S8  4  -0.10458150  0.44919501  0.60337019  1
  S  S9  4  0.22267674  0.65925992  -0.03449125  1
  S  S10  4  0.23311783  0.40379000  -0.02505285  1
  N  N11  4  -0.12241392  0.38361748  0.14547279  1
  N  N12  4  -0.10291082  0.67237187  0.20578664  1
  N  N13  4  -0.05453953  0.73034978  0.65117895  1
  N  N14  4  0.01382205  0.36793091  0.55138305  1
