###############################################################################################
#
# CIF file generated by modified CIFWriter class 
# in pymatgen (v2025.03.10) https://pymatgen.org/
#
###############################################################################################
data_MACE-OFF23(L)_c042d1839b668c2
_symmetry_space_group_name_H-M   Pca2_1
_cell_length_a   9.12944622
_cell_length_b   9.48020494
_cell_length_c   12.17415678
_cell_angle_alpha   90.00000000
_cell_angle_beta   90.00000000
_cell_angle_gamma   90.00000000
_symmetry_Int_Tables_number   29
_chemical_formula_moiety   'C8 N4 S3'
_chemical_formula_sum   'C32 S12 N16'
_cell_volume   1053.66135276
_cell_formula_units_Z   4
loop_
 _symmetry_equiv_pos_site_id
 _symmetry_equiv_pos_as_xyz
  1  'x, y, z'
  2  '-x, -y, z+1/2'
  3  '-x+1/2, y, z+1/2'
  4  'x+1/2, -y, z'
loop_
 _atom_site_type_symbol
 _atom_site_label
 _atom_site_symmetry_multiplicity
 _atom_site_fract_x
 _atom_site_fract_y
 _atom_site_fract_z
 _atom_site_occupancy
  C  C0  4  -0.22383212  0.82404638  0.09776456  1
  C  C1  4  -0.08812412  0.82780088  0.15453585  1
  C  C2  4  0.05071982  0.82184375  0.11195288  1
  C  C3  4  0.05876498  0.57254626  0.58749357  1
  C  C4  4  0.15275609  0.82437224  0.19969310  1
  C  C5  4  0.16306278  0.68328249  0.57217216  1
  C  C6  4  0.24124349  0.68359351  -0.01128109  1
  C  C7  4  0.24351949  0.57545549  -0.09348145  1
  S  S8  4  -0.07941982  0.83944802  0.29468145  1
  S  S9  4  0.10282072  0.81254893  -0.02587549  1
  S  S10  4  0.15762918  0.81239392  0.67669803  1
  N  N11  4  -0.02593969  0.48666387  0.60672896  1
  N  N12  4  0.10014082  0.83487028  0.29915166  1
  N  N13  4  0.16456273  0.17887466  0.05436216  1
  N  N14  4  0.24398505  0.49160379  -0.16147931  1
