###############################################################################################
#
# CIF file generated by modified CIFWriter class 
# in pymatgen (v2025.03.10) https://pymatgen.org/
#
###############################################################################################
data_MACE-OFF23(L)_c1f6298539b125a
_symmetry_space_group_name_H-M   P2/c
_cell_length_a   19.11780142
_cell_length_b   6.59926740
_cell_length_c   8.22863758
_cell_angle_alpha   90.00000000
_cell_angle_beta   74.10712556
_cell_angle_gamma   90.00000000
_symmetry_Int_Tables_number   13
_chemical_formula_moiety   'C8 N4 S3'
_chemical_formula_sum   'C32 S12 N16'
_cell_volume   998.47054945
_cell_formula_units_Z   4
loop_
 _symmetry_equiv_pos_site_id
 _symmetry_equiv_pos_as_xyz
  1  'x, y, z'
  2  '-x, -y, -z'
  3  '-x, y, -z+1/2'
  4  'x, -y, z+1/2'
loop_
 _atom_site_type_symbol
 _atom_site_label
 _atom_site_symmetry_multiplicity
 _atom_site_fract_x
 _atom_site_fract_y
 _atom_site_fract_z
 _atom_site_occupancy
  C  C0  4  0.10853108  0.50346326  0.41673075  1
  C  C1  4  0.12235133  0.89814880  0.26845974  1
  C  C2  4  0.16309555  0.35644662  0.93377021  1
  C  C3  4  0.17031120  0.82788227  0.36249927  1
  C  C4  4  0.30497014  0.60746069  0.36692873  1
  C  C5  4  0.31221799  0.80404788  0.29503593  1
  C  C6  4  0.37764968  0.81679545  0.17374601  1
  C  C7  4  0.40616618  0.99197221  0.07840570  1
  S  S8  4  0.22782480  0.45517341  1.03105113  1
  S  S9  4  0.24500270  0.01068181  0.85799505  1
  S  S10  4  0.42256171  0.59103077  0.16102362  1
  N  N11  4  0.06974489  0.62029233  0.89528617  1
  N  N12  4  0.08875108  0.04387439  0.68196326  1
  N  N13  4  0.35781504  0.47954433  0.30577515  1
  N  N14  4  0.42771397  1.13797054  0.00608068  1
