###############################################################################################
#
# CIF file generated by modified CIFWriter class 
# in pymatgen (v2025.03.10) https://pymatgen.org/
#
###############################################################################################
data_MACE-OFF23(L)_c328f887693a3c8
_symmetry_space_group_name_H-M   P-4
_cell_length_a   16.43661262
_cell_length_b   16.43661262
_cell_length_c   3.70642299
_cell_angle_alpha   90.00000000
_cell_angle_beta   90.00000000
_cell_angle_gamma   90.00000000
_symmetry_Int_Tables_number   81
_chemical_formula_moiety   'C8 N4 S3'
_chemical_formula_sum   'C32 S12 N16'
_cell_volume   1001.33551742
_cell_formula_units_Z   4
loop_
 _symmetry_equiv_pos_site_id
 _symmetry_equiv_pos_as_xyz
  1  'x, y, z'
  2  'y, -x, -z'
  3  '-x, -y, z'
  4  '-y, x, -z'
loop_
 _atom_site_type_symbol
 _atom_site_label
 _atom_site_symmetry_multiplicity
 _atom_site_fract_x
 _atom_site_fract_y
 _atom_site_fract_z
 _atom_site_occupancy
  C  C0  4  0.11178182  0.64424342  0.53152654  1
  C  C1  4  0.11658697  0.12838043  0.71106706  1
  C  C2  4  0.15097493  0.80013291  0.34935563  1
  C  C3  4  0.16750909  0.27945507  0.92790237  1
  C  C4  4  0.19003693  0.61947815  0.40897176  1
  C  C5  4  0.19453480  0.53600959  0.42562357  1
  C  C6  4  0.22435236  0.22549364  0.75710704  1
  C  C7  4  0.25991657  0.48638150  0.30490983  1
  S  S8  4  0.07218361  0.74343534  0.54831898  1
  S  S9  4  0.10611141  0.49642352  0.58961840  1
  S  S10  4  0.27139817  0.67960272  0.26857167  1
  N  N11  4  0.04992684  0.11141426  0.76496106  1
  N  N12  4  0.06355012  0.58572814  0.63890937  1
  N  N13  4  0.12508803  0.32356380  1.07741644  1
  N  N14  4  0.31190958  0.44691479  0.19422250  1
