###############################################################################################
#
# CIF file generated by modified CIFWriter class 
# in pymatgen (v2025.03.10) https://pymatgen.org/
#
###############################################################################################
data_MACE-OFF23(L)_c3d3d5b8e698e2f
_symmetry_space_group_name_H-M   P222_1
_cell_length_a   10.07779933
_cell_length_b   12.93825004
_cell_length_c   10.43643657
_cell_angle_alpha   90.00000000
_cell_angle_beta   90.00000000
_cell_angle_gamma   90.00000000
_symmetry_Int_Tables_number   17
_chemical_formula_moiety   'C8 N4 S3'
_chemical_formula_sum   'C32 S12 N16'
_cell_volume   1360.79744137
_cell_formula_units_Z   4
loop_
 _symmetry_equiv_pos_site_id
 _symmetry_equiv_pos_as_xyz
  1  'x, y, z'
  2  '-x, -y, z+1/2'
  3  'x, -y, -z'
  4  '-x, y, -z+1/2'
loop_
 _atom_site_type_symbol
 _atom_site_label
 _atom_site_symmetry_multiplicity
 _atom_site_fract_x
 _atom_site_fract_y
 _atom_site_fract_z
 _atom_site_occupancy
  C  C0  4  0.01754230  0.71028982  0.57934120  1
  C  C1  4  0.13336876  0.48161701  0.34349465  1
  C  C2  4  0.14415942  0.29432098  0.35862855  1
  C  C3  4  0.19471355  0.38416983  0.31652101  1
  C  C4  4  0.31097999  0.18667731  0.20408097  1
  C  C5  4  0.36075226  0.28227646  0.15778214  1
  C  C6  4  0.43250844  0.26470340  0.04818920  1
  C  C7  4  0.49660045  0.33773182  0.52695744  1
  S  S8  4  0.21954960  0.17158135  0.34620451  1
  S  S9  4  0.34179730  0.40282138  0.23000034  1
  S  S10  4  0.43188318  0.13553609  0.01372103  1
  N  N11  4  -0.08639526  0.27986243  0.46411573  1
  N  N12  4  0.09455583  0.43696247  0.63480192  1
  N  N13  4  0.34038696  0.10437464  0.13759423  1
  N  N14  4  0.43651968  0.39551890  0.58701388  1
