###############################################################################################
#
# CIF file generated by modified CIFWriter class 
# in pymatgen (v2025.03.10) https://pymatgen.org/
#
###############################################################################################
data_MACE-OFF23(L)_c78193d1ef91954
_symmetry_space_group_name_H-M   P2_1/c
_cell_length_a   9.49723437
_cell_length_b   10.24954458
_cell_length_c   10.89738253
_cell_angle_alpha   90.00000000
_cell_angle_beta   115.96998209
_cell_angle_gamma   90.00000000
_symmetry_Int_Tables_number   14
_chemical_formula_moiety   'C8 N4 S3'
_chemical_formula_sum   'C32 S12 N16'
_cell_volume   953.66316486
_cell_formula_units_Z   4
loop_
 _symmetry_equiv_pos_site_id
 _symmetry_equiv_pos_as_xyz
  1  'x, y, z'
  2  '-x, -y, -z'
  3  '-x, y+1/2, -z+1/2'
  4  'x, -y+1/2, z+1/2'
loop_
 _atom_site_type_symbol
 _atom_site_label
 _atom_site_symmetry_multiplicity
 _atom_site_fract_x
 _atom_site_fract_y
 _atom_site_fract_z
 _atom_site_occupancy
  C  C0  4  -0.07223179  -0.01626139  0.68538339  1
  C  C1  4  0.05697772  -0.06279003  0.66487467  1
  C  C2  4  0.19330805  0.00026903  0.68646293  1
  C  C3  4  0.28619151  0.58369706  0.14831887  1
  C  C4  4  0.30547366  0.51664624  0.58253270  1
  C  C5  4  0.44754691  0.12469492  0.85323410  1
  C  C6  4  0.46298482  0.54460756  0.68060053  1
  C  C7  4  0.49104486  0.81377972  0.01569137  1
  S  S8  4  0.05595919  -0.21462343  0.59855895  1
  S  S9  4  0.24977196  0.15917218  0.74512211  1
  S  S10  4  0.47039704  -0.03637330  0.66139214  1
  N  N11  4  -0.18011648  0.48031670  0.19728554  1
  N  N12  4  0.18186148  0.49238797  0.50075473  1
  N  N13  4  0.22796248  -0.19828396  0.60056610  1
  N  N14  4  0.44360912  0.76476189  -0.08957999  1
