###############################################################################################
#
# CIF file generated by modified CIFWriter class 
# in pymatgen (v2025.03.10) https://pymatgen.org/
#
###############################################################################################
data_MACE-OFF23(L)_c7c7664a07294b8
_symmetry_space_group_name_H-M   P2_1/c
_cell_length_a   10.20034322
_cell_length_b   6.36882330
_cell_length_c   15.65857113
_cell_angle_alpha   90.00000000
_cell_angle_beta   88.81492841
_cell_angle_gamma   90.00000000
_symmetry_Int_Tables_number   14
_chemical_formula_moiety   'C8 N4 S3'
_chemical_formula_sum   'C32 S12 N16'
_cell_volume   1017.02870720
_cell_formula_units_Z   4
loop_
 _symmetry_equiv_pos_site_id
 _symmetry_equiv_pos_as_xyz
  1  'x, y, z'
  2  '-x, -y, -z'
  3  '-x, y+1/2, -z+1/2'
  4  'x, -y+1/2, z+1/2'
loop_
 _atom_site_type_symbol
 _atom_site_label
 _atom_site_symmetry_multiplicity
 _atom_site_fract_x
 _atom_site_fract_y
 _atom_site_fract_z
 _atom_site_occupancy
  C  C0  4  0.15366059  0.67072300  0.86462460  1
  C  C1  4  0.25442418  0.28023038  0.68006792  1
  C  C2  4  0.25607276  0.37076486  0.76378375  1
  C  C3  4  0.26479367  0.83978519  0.41718015  1
  C  C4  4  0.27176106  0.66029732  0.46533722  1
  C  C5  4  0.36263259  0.88054473  1.03054826  1
  C  C6  4  0.36739056  0.38197875  0.80811636  1
  C  C7  4  0.49233178  0.34946243  0.76671056  1
  S  S8  4  0.10152845  0.46092242  0.80038749  1
  S  S9  4  0.14563840  1.00341388  0.94014592  1
  S  S10  4  0.37576142  0.45266678  0.91722650  1
  N  N11  4  0.08475980  0.84343284  0.86951235  1
  N  N12  4  0.24780625  0.19748377  0.61517132  1
  N  N13  4  0.40603455  -0.15820380  0.76602282  1
  N  N14  4  0.43407882  0.59179757  0.58515292  1
