###############################################################################################
#
# CIF file generated by modified CIFWriter class 
# in pymatgen (v2025.03.10) https://pymatgen.org/
#
###############################################################################################
data_MACE-OFF23(L)_caa8a1d95f3cd5b
_symmetry_space_group_name_H-M   Pnn2
_cell_length_a   9.31854784
_cell_length_b   16.10467547
_cell_length_c   7.55016541
_cell_angle_alpha   90.00000000
_cell_angle_beta   90.00000000
_cell_angle_gamma   90.00000000
_symmetry_Int_Tables_number   34
_chemical_formula_moiety   'C8 N4 S3'
_chemical_formula_sum   'C32 S12 N16'
_cell_volume   1133.06984893
_cell_formula_units_Z   4
loop_
 _symmetry_equiv_pos_site_id
 _symmetry_equiv_pos_as_xyz
  1  'x, y, z'
  2  '-x, -y, z'
  3  '-x+1/2, y+1/2, z+1/2'
  4  'x+1/2, -y+1/2, z+1/2'
loop_
 _atom_site_type_symbol
 _atom_site_label
 _atom_site_symmetry_multiplicity
 _atom_site_fract_x
 _atom_site_fract_y
 _atom_site_fract_z
 _atom_site_occupancy
  C  C0  4  -0.24539205  0.86656521  1.16352119  1
  C  C1  4  -0.21332722  0.88561899  0.98407136  1
  C  C2  4  -0.09650871  0.89427955  0.72005920  1
  C  C3  4  -0.09113813  0.86239554  0.89575589  1
  C  C4  4  0.17645797  0.32911216  0.45315689  1
  C  C5  4  0.18204617  0.38521895  0.10626008  1
  C  C6  4  0.18626381  0.86397228  0.69313381  1
  C  C7  4  0.18968555  0.83542761  0.86038054  1
  S  S8  4  0.03446447  0.87678905  0.55764508  1
  S  S9  4  0.04291273  0.79996937  0.98527200  1
  S  S10  4  0.17762956  0.55884168  0.34548142  1
  N  N11  4  -0.20995620  0.93757289  0.67888509  1
  N  N12  4  0.07049891  0.32466002  0.53015537  1
  N  N13  4  0.07556676  0.40087045  0.03734708  1
  N  N14  4  0.23480888  0.64939100  0.80967973  1
