###############################################################################################
#
# CIF file generated by modified CIFWriter class 
# in pymatgen (v2025.03.10) https://pymatgen.org/
#
###############################################################################################
data_MACE-OFF23(L)_cad5e29e6b1e665
_symmetry_space_group_name_H-M   P2_12_12_1
_cell_length_a   12.61022321
_cell_length_b   7.14292139
_cell_length_c   10.40725554
_cell_angle_alpha   90.00000000
_cell_angle_beta   90.00000000
_cell_angle_gamma   90.00000000
_symmetry_Int_Tables_number   19
_chemical_formula_moiety   'C8 N4 S3'
_chemical_formula_sum   'C32 S12 N16'
_cell_volume   937.42139778
_cell_formula_units_Z   4
loop_
 _symmetry_equiv_pos_site_id
 _symmetry_equiv_pos_as_xyz
  1  'x, y, z'
  2  'x+1/2, -y+1/2, -z'
  3  '-x, y+1/2, -z+1/2'
  4  '-x+1/2, -y, z+1/2'
loop_
 _atom_site_type_symbol
 _atom_site_label
 _atom_site_symmetry_multiplicity
 _atom_site_fract_x
 _atom_site_fract_y
 _atom_site_fract_z
 _atom_site_occupancy
  C  C0  4  -0.09935702  0.65518416  0.53171176  1
  C  C1  4  -0.07635205  -0.01370564  0.26550500  1
  C  C2  4  -0.03842951  0.48774366  0.55027695  1
  C  C3  4  0.00922130  0.15712607  0.44624604  1
  C  C4  4  0.01082195  0.03284544  0.34588980  1
  C  C5  4  0.05770213  0.49587676  0.60609560  1
  C  C6  4  0.10029312  0.67096663  0.64959317  1
  C  C7  4  0.11133858  0.16551109  0.50296062  1
  S  S8  4  -0.10161504  0.27991904  0.49883241  1
  S  S9  4  0.13473721  -0.06268317  0.33264976  1
  S  S10  4  0.14081236  0.30302210  0.63794342  1
  N  N11  4  -0.14835520  0.78930801  0.51835990  1
  N  N12  4  -0.14811306  -0.04754364  0.20137437  1
  N  N13  4  0.13387434  0.80958717  0.68752593  1
  N  N14  4  0.18391198  0.05930121  0.45144570  1
