###############################################################################################
#
# CIF file generated by modified CIFWriter class 
# in pymatgen (v2025.03.10) https://pymatgen.org/
#
###############################################################################################
data_MACE-OFF23(L)_cfa3a60a5fa929b
_symmetry_space_group_name_H-M   P-4
_cell_length_a   9.46115279
_cell_length_b   9.46115279
_cell_length_c   11.98194070
_cell_angle_alpha   90.00000000
_cell_angle_beta   90.00000000
_cell_angle_gamma   90.00000000
_symmetry_Int_Tables_number   81
_chemical_formula_moiety   'C8 N4 S3'
_chemical_formula_sum   'C32 S12 N16'
_cell_volume   1072.54439544
_cell_formula_units_Z   4
loop_
 _symmetry_equiv_pos_site_id
 _symmetry_equiv_pos_as_xyz
  1  'x, y, z'
  2  'y, -x, -z'
  3  '-x, -y, z'
  4  '-y, x, -z'
loop_
 _atom_site_type_symbol
 _atom_site_label
 _atom_site_symmetry_multiplicity
 _atom_site_fract_x
 _atom_site_fract_y
 _atom_site_fract_z
 _atom_site_occupancy
  C  C0  4  0.12233182  0.67989604  0.67496868  1
  C  C1  4  0.13447707  0.60186911  0.49516746  1
  C  C2  4  0.17178559  0.51734593  0.40161055  1
  C  C3  4  0.17414966  0.47115254  0.96152652  1
  C  C4  4  0.17991776  0.57680323  0.60190997  1
  C  C5  4  0.19425377  0.51127335  0.84704914  1
  C  C6  4  0.24152589  0.41174877  0.77591735  1
  C  C7  4  0.25069217  0.26623388  0.80842290  1
  S  S8  4  0.02951780  0.74855053  0.49295971  1
  S  S9  4  0.15856930  0.69024372  0.81874472  1
  S  S10  4  0.29667881  0.44290265  0.63775648  1
  N  N11  4  0.04085540  0.77463660  0.62803735  1
  N  N12  4  0.14795927  0.74565415  0.17022189  1
  N  N13  4  0.16644277  0.43659583  1.05314598  1
  N  N14  4  0.20801100  0.44300988  0.33140638  1
