###############################################################################################
#
# CIF file generated by modified CIFWriter class 
# in pymatgen (v2025.03.10) https://pymatgen.org/
#
###############################################################################################
data_MACE-OFF23(L)_cfb08b7c9f81590
_symmetry_space_group_name_H-M   Pna2_1
_cell_length_a   13.60282633
_cell_length_b   6.24703209
_cell_length_c   11.23691131
_cell_angle_alpha   90.00000000
_cell_angle_beta   90.00000000
_cell_angle_gamma   90.00000000
_symmetry_Int_Tables_number   33
_chemical_formula_moiety   'C8 N4 S3'
_chemical_formula_sum   'C32 S12 N16'
_cell_volume   954.88230095
_cell_formula_units_Z   4
loop_
 _symmetry_equiv_pos_site_id
 _symmetry_equiv_pos_as_xyz
  1  'x, y, z'
  2  '-x, -y, z+1/2'
  3  '-x+1/2, y+1/2, z+1/2'
  4  'x+1/2, -y+1/2, z'
loop_
 _atom_site_type_symbol
 _atom_site_label
 _atom_site_symmetry_multiplicity
 _atom_site_fract_x
 _atom_site_fract_y
 _atom_site_fract_z
 _atom_site_occupancy
  C  C0  4  0.00669122  0.62298886  0.56696674  1
  C  C1  4  0.06520237  -0.15534577  0.29167810  1
  C  C2  4  0.08455819  0.48888979  0.52314111  1
  C  C3  4  0.14795425  0.13775234  0.40501023  1
  C  C4  4  0.14843358  -0.04875912  0.34036242  1
  C  C5  4  0.17782247  0.54168000  0.55081853  1
  C  C6  4  0.19531406  0.73314606  0.61839640  1
  C  C7  4  0.24696681  0.18931988  0.43654655  1
  S  S8  4  0.03984284  0.27553805  0.43740882  1
  S  S9  4  0.21137975  0.91335340  1.01552280  1
  S  S10  4  0.23402218  0.35722158  0.82532558  1
  N  N11  4  -0.05438338  0.73118492  0.60341433  1
  N  N12  4  -0.00254458  -0.24210687  0.25426920  1
  N  N13  4  0.18575294  0.55547730  0.90047755  1
  N  N14  4  0.21109219  0.88891405  0.66909611  1
