###############################################################################################
#
# CIF file generated by modified CIFWriter class 
# in pymatgen (v2025.03.10) https://pymatgen.org/
#
###############################################################################################
data_MACE-OFF23(L)_d322a733ead4efe
_symmetry_space_group_name_H-M   C2
_cell_length_a   10.78125652
_cell_length_b   11.86584183
_cell_length_c   8.72466237
_cell_angle_alpha   90.00000000
_cell_angle_beta   68.05152568
_cell_angle_gamma   90.00000000
_symmetry_Int_Tables_number   5
_chemical_formula_moiety   'C8 N4 S3'
_chemical_formula_sum   'C32 S12 N16'
_cell_volume   1035.23754796
_cell_formula_units_Z   4
loop_
 _symmetry_equiv_pos_site_id
 _symmetry_equiv_pos_as_xyz
  1  'x, y, z'
  2  '-x, y, -z'
  3  'x+1/2, y+1/2, z'
  4  '-x+1/2, y+1/2, -z'
loop_
 _atom_site_type_symbol
 _atom_site_label
 _atom_site_symmetry_multiplicity
 _atom_site_fract_x
 _atom_site_fract_y
 _atom_site_fract_z
 _atom_site_occupancy
  C  C0  4  0.01828266  0.79218843  0.19564893  1
  C  C1  4  0.07157323  0.40553891  0.67848242  1
  C  C2  4  0.08419342  0.22944582  0.77408441  1
  C  C3  4  0.10454190  0.51503192  0.60936248  1
  C  C4  4  0.13831597  0.75896747  0.21787430  1
  C  C5  4  0.15737129  0.32801934  0.70128246  1
  C  C6  4  0.17532358  0.60461124  0.02412359  1
  C  C7  4  0.20956524  0.66812879  0.14251381  1
  S  S8  4  -0.08629505  0.35024586  0.74191242  1
  S  S9  4  0.15371047  0.10804451  0.82312975  1
  S  S10  4  0.17093543  0.84705563  0.36001362  1
  N  N11  4  -0.08176985  0.82180888  0.19184326  1
  N  N12  4  -0.04361725  0.23070808  0.80201850  1
  N  N13  4  0.12966827  0.60299926  0.55119732  1
  N  N14  4  0.15330541  0.54796470  -0.06926867  1
