###############################################################################################
#
# CIF file generated by modified CIFWriter class 
# in pymatgen (v2025.03.10) https://pymatgen.org/
#
###############################################################################################
data_MACE-OFF23(L)_d3834b0993fab1f
_symmetry_space_group_name_H-M   Pca2_1
_cell_length_a   7.41724266
_cell_length_b   13.38974063
_cell_length_c   10.19744402
_cell_angle_alpha   90.00000000
_cell_angle_beta   90.00000000
_cell_angle_gamma   90.00000000
_symmetry_Int_Tables_number   29
_chemical_formula_moiety   'C8 N4 S3'
_chemical_formula_sum   'C32 S12 N16'
_cell_volume   1012.75869821
_cell_formula_units_Z   4
loop_
 _symmetry_equiv_pos_site_id
 _symmetry_equiv_pos_as_xyz
  1  'x, y, z'
  2  '-x, -y, z+1/2'
  3  '-x+1/2, y, z+1/2'
  4  'x+1/2, -y, z'
loop_
 _atom_site_type_symbol
 _atom_site_label
 _atom_site_symmetry_multiplicity
 _atom_site_fract_x
 _atom_site_fract_y
 _atom_site_fract_z
 _atom_site_occupancy
  C  C0  4  -0.10131810  0.63668693  0.77429502  1
  C  C1  4  -0.01140097  0.63157140  0.65131826  1
  C  C2  4  -0.00912867  0.70622692  0.55924249  1
  C  C3  4  -0.00740440  0.99896997  0.49860729  1
  C  C4  4  0.00357013  0.89400314  0.47143346  1
  C  C5  4  0.08869599  0.67294807  0.44770430  1
  C  C6  4  0.09852769  0.86353975  0.36635914  1
  C  C7  4  0.19877831  0.93600023  0.29341094  1
  S  S8  4  -0.12226534  0.81908479  0.57833876  1
  S  S9  4  0.10162450  0.52954890  0.59295919  1
  S  S10  4  0.11639611  0.74227684  0.30247741  1
  N  N11  4  -0.17939362  0.64510128  0.87093829  1
  N  N12  4  -0.02241955  1.08314305  0.51672311  1
  N  N13  4  0.15500907  0.58291164  0.45338318  1
  N  N14  4  0.21551113  0.99332587  -0.26204754  1
