###############################################################################################
#
# CIF file generated by modified CIFWriter class 
# in pymatgen (v2025.03.10) https://pymatgen.org/
#
###############################################################################################
data_MACE-OFF23(L)_d63099f0e6055c0
_symmetry_space_group_name_H-M   P2_1/c
_cell_length_a   11.02320437
_cell_length_b   11.86836590
_cell_length_c   7.21172183
_cell_angle_alpha   90.00000000
_cell_angle_beta   99.26459659
_cell_angle_gamma   90.00000000
_symmetry_Int_Tables_number   14
_chemical_formula_moiety   'C8 N4 S3'
_chemical_formula_sum   'C32 S12 N16'
_cell_volume   931.18350377
_cell_formula_units_Z   4
loop_
 _symmetry_equiv_pos_site_id
 _symmetry_equiv_pos_as_xyz
  1  'x, y, z'
  2  '-x, -y, -z'
  3  '-x, y+1/2, -z+1/2'
  4  'x, -y+1/2, z+1/2'
loop_
 _atom_site_type_symbol
 _atom_site_label
 _atom_site_symmetry_multiplicity
 _atom_site_fract_x
 _atom_site_fract_y
 _atom_site_fract_z
 _atom_site_occupancy
  C  C0  4  -0.05738643  0.44529947  -0.26915857  1
  C  C1  4  0.03567876  0.11248412  0.35365329  1
  C  C2  4  0.15194028  0.07315045  0.41492763  1
  C  C3  4  0.22005828  0.15621145  0.52977882  1
  C  C4  4  0.32341561  -0.08028485  0.53711964  1
  C  C5  4  0.34833534  -0.19804250  0.56531489  1
  C  C6  4  0.39039163  -0.00291501  0.64605351  1
  C  C7  4  0.49410420  -0.04154151  0.77718837  1
  S  S8  4  0.02122086  0.24597156  0.43554653  1
  S  S9  4  0.20531733  -0.05510233  0.34728046  1
  S  S10  4  0.37384574  0.14395695  0.63970111  1
  N  N11  4  -0.13067220  0.49452843  -0.36859509  1
  N  N12  4  0.16165272  0.24945294  0.55275438  1
  N  N13  4  0.36323816  -0.29349365  0.58261164  1
  N  N14  4  0.41870585  1.07394748  0.12941801  1
