###############################################################################################
#
# CIF file generated by modified CIFWriter class 
# in pymatgen (v2025.03.10) https://pymatgen.org/
#
###############################################################################################
data_MACE-OFF23(L)_d8112ce8755e41b
_symmetry_space_group_name_H-M   Pna2_1
_cell_length_a   13.48763370
_cell_length_b   19.46239763
_cell_length_c   3.72936896
_cell_angle_alpha   90.00000000
_cell_angle_beta   90.00000000
_cell_angle_gamma   90.00000000
_symmetry_Int_Tables_number   33
_chemical_formula_moiety   'C8 N4 S3'
_chemical_formula_sum   'C32 S12 N16'
_cell_volume   978.96565636
_cell_formula_units_Z   4
loop_
 _symmetry_equiv_pos_site_id
 _symmetry_equiv_pos_as_xyz
  1  'x, y, z'
  2  '-x, -y, z+1/2'
  3  '-x+1/2, y+1/2, z+1/2'
  4  'x+1/2, -y+1/2, z'
loop_
 _atom_site_type_symbol
 _atom_site_label
 _atom_site_symmetry_multiplicity
 _atom_site_fract_x
 _atom_site_fract_y
 _atom_site_fract_z
 _atom_site_occupancy
  C  C0  4  0.09470354  0.73659873  0.80630392  1
  C  C1  4  0.11068757  0.93129421  0.58156075  1
  C  C2  4  0.14492996  0.86878382  0.74261357  1
  C  C3  4  0.18944995  0.39735171  0.04166898  1
  C  C4  4  0.19683653  0.72071758  0.76781652  1
  C  C5  4  0.20294013  0.12455831  0.02626250  1
  C  C6  4  0.20645854  0.65491777  0.63969677  1
  C  C7  4  0.24173219  0.85251946  0.71779507  1
  S  S8  4  0.05204546  0.81762043  0.94567355  1
  S  S9  4  0.09193914  0.61797787  0.59795977  1
  S  S10  4  0.20496649  0.27530165  0.37254831  1
  N  N11  4  0.03228682  0.68736971  0.72605904  1
  N  N12  4  0.08713943  0.98002468  0.43046342  1
  N  N13  4  0.12847678  0.10448565  -0.08025527  1
  N  N14  4  0.13351273  0.43102973  -0.11015019  1
