###############################################################################################
#
# CIF file generated by modified CIFWriter class 
# in pymatgen (v2025.03.10) https://pymatgen.org/
#
###############################################################################################
data_MACE-OFF23(L)_d8dcb3594c662cd
_symmetry_space_group_name_H-M   P2_12_12_1
_cell_length_a   6.83532075
_cell_length_b   12.24187343
_cell_length_c   11.63527981
_cell_angle_alpha   90.00000000
_cell_angle_beta   90.00000000
_cell_angle_gamma   90.00000000
_symmetry_Int_Tables_number   19
_chemical_formula_moiety   'C8 N4 S3'
_chemical_formula_sum   'C32 S12 N16'
_cell_volume   973.60683724
_cell_formula_units_Z   4
loop_
 _symmetry_equiv_pos_site_id
 _symmetry_equiv_pos_as_xyz
  1  'x, y, z'
  2  '-x, y+1/2, -z+1/2'
  3  'x+1/2, -y+1/2, -z'
  4  '-x+1/2, -y, z+1/2'
loop_
 _atom_site_type_symbol
 _atom_site_label
 _atom_site_symmetry_multiplicity
 _atom_site_fract_x
 _atom_site_fract_y
 _atom_site_fract_z
 _atom_site_occupancy
  C  C0  4  0.15806919  0.99508665  0.75849517  1
  C  C1  4  0.19101453  0.54181876  0.37741376  1
  C  C2  4  0.19755017  0.33853668  0.38143236  1
  C  C3  4  0.20033055  0.83278345  0.59883556  1
  C  C4  4  0.20510138  0.43907329  0.43332139  1
  C  C5  4  0.22476341  0.25671513  0.46675453  1
  C  C6  4  0.22512965  0.88979034  0.79560438  1
  C  C7  4  0.24933899  0.18910999  0.21629936  1
  S  S8  4  0.14750449  0.31899052  0.23642313  1
  S  S9  4  0.22691479  0.11488893  0.44363796  1
  S  S10  4  0.23739614  0.42473383  0.57793936  1
  N  N11  4  0.10891873  1.08003518  0.72822315  1
  N  N12  4  0.16097239  0.85056030  0.50473207  1
  N  N13  4  0.18202712  0.62375600  0.32951327  1
  N  N14  4  0.24690113  0.29122027  0.57208019  1
