###############################################################################################
#
# CIF file generated by modified CIFWriter class 
# in pymatgen (v2025.03.10) https://pymatgen.org/
#
###############################################################################################
data_MACE-OFF23(L)_deb749770cbe9d2
_symmetry_space_group_name_H-M   Pccm
_cell_length_a   9.99440479
_cell_length_b   14.88512769
_cell_length_c   6.61218590
_cell_angle_alpha   90.00000000
_cell_angle_beta   90.00000000
_cell_angle_gamma   90.00000000
_symmetry_Int_Tables_number   49
_chemical_formula_moiety   'C8 N4 S3'
_chemical_formula_sum   'C32 S12 N16'
_cell_volume   983.68161591
_cell_formula_units_Z   4
loop_
 _symmetry_equiv_pos_site_id
 _symmetry_equiv_pos_as_xyz
  1  'x, y, z'
  2  '-x, -y, -z+640/793'
  3  '-x, -y, z'
  4  'x, y, -z+640/793'
  5  'x, -y, -z+300/977'
  6  '-x, y, z+1/2'
  7  '-x, y, -z+300/977'
  8  'x, -y, z+1/2'
loop_
 _atom_site_type_symbol
 _atom_site_label
 _atom_site_symmetry_multiplicity
 _atom_site_fract_x
 _atom_site_fract_y
 _atom_site_fract_z
 _atom_site_occupancy
  C  C0  4  -0.10045725  0.87922797  0.40395562  1
  C  C1  4  -0.05665304  0.21167850  0.90378428  1
  C  C2  4  0.06915835  0.33954617  0.90356263  1
  C  C3  4  0.07248325  0.24340313  0.90376945  1
  C  C4  4  0.34019307  0.33935865  0.90334836  1
  C  C5  4  0.34254679  0.24858112  0.90348377  1
  C  C6  4  0.46829901  0.38301558  0.90309980  1
  C  C7  4  0.47086081  0.20553772  0.90332004  1
  S  S8  4  -0.16717762  0.29962831  0.90358279  1
  S  S9  4  0.20557237  0.58588825  0.40353085  1
  S  S10  4  0.21060864  0.17148690  0.90408224  1
  N  N11  4  -0.13781826  0.04788325  0.90412593  1
  N  N12  4  -0.04934020  0.37615709  0.90347256  1
  N  N13  4  0.42453516  0.17367278  0.40317249  1
  N  N14  4  0.42607338  0.41321645  0.40294595  1
