###############################################################################################
#
# CIF file generated by modified CIFWriter class 
# in pymatgen (v2025.03.10) https://pymatgen.org/
#
###############################################################################################
data_MACE-OFF23(L)_e0495488a0a8c96
_symmetry_space_group_name_H-M   C2
_cell_length_a   12.90917161
_cell_length_b   9.53256878
_cell_length_c   9.03058143
_cell_angle_alpha   90.00000000
_cell_angle_beta   77.96722235
_cell_angle_gamma   90.00000000
_symmetry_Int_Tables_number   5
_chemical_formula_moiety   'C8 N4 S3'
_chemical_formula_sum   'C32 S12 N16'
_cell_volume   1086.86485200
_cell_formula_units_Z   4
loop_
 _symmetry_equiv_pos_site_id
 _symmetry_equiv_pos_as_xyz
  1  'x, y, z'
  2  '-x, y, -z'
  3  'x+1/2, y+1/2, z'
  4  '-x+1/2, y+1/2, -z'
loop_
 _atom_site_type_symbol
 _atom_site_label
 _atom_site_symmetry_multiplicity
 _atom_site_fract_x
 _atom_site_fract_y
 _atom_site_fract_z
 _atom_site_occupancy
  C  C0  4  -0.13991163  0.36991384  0.11646564  1
  C  C1  4  -0.07403524  0.10904753  0.18135678  1
  C  C2  4  -0.05172591  0.35721231  0.18927886  1
  C  C3  4  -0.01829261  0.22898624  0.22079734  1
  C  C4  4  0.09368782  0.47928724  0.32353537  1
  C  C5  4  0.12791808  0.34444527  0.36103392  1
  C  C6  4  0.12986250  0.72660159  0.37743465  1
  C  C7  4  0.14475016  0.57996493  0.39014500  1
  S  S8  4  0.00180309  0.52208358  0.21436586  1
  S  S9  4  0.08914932  0.18119732  0.30044967  1
  S  S10  4  0.22836053  0.50322987  0.48968839  1
  N  N11  4  -0.20642560  0.38457053  0.05093081  1
  N  N12  4  -0.11787528  0.01381118  0.14652779  1
  N  N13  4  0.11409025  0.84362396  0.36199760  1
  N  N14  4  0.19686396  0.34339568  0.44825657  1
