###############################################################################################
#
# CIF file generated by modified CIFWriter class 
# in pymatgen (v2025.03.10) https://pymatgen.org/
#
###############################################################################################
data_MACE-OFF23(L)_e23175197bfb2f6
_symmetry_space_group_name_H-M   P2_1/c
_cell_length_a   11.41857080
_cell_length_b   6.67487143
_cell_length_c   14.72697389
_cell_angle_alpha   90.00000000
_cell_angle_beta   123.58237428
_cell_angle_gamma   90.00000000
_symmetry_Int_Tables_number   14
_chemical_formula_moiety   'C8 N4 S3'
_chemical_formula_sum   'C32 S12 N16'
_cell_volume   935.10599801
_cell_formula_units_Z   4
loop_
 _symmetry_equiv_pos_site_id
 _symmetry_equiv_pos_as_xyz
  1  'x, y, z'
  2  '-x, -y, -z'
  3  '-x, y+1/2, -z+1/2'
  4  'x, -y+1/2, z+1/2'
loop_
 _atom_site_type_symbol
 _atom_site_label
 _atom_site_symmetry_multiplicity
 _atom_site_fract_x
 _atom_site_fract_y
 _atom_site_fract_z
 _atom_site_occupancy
  C  C0  4  0.00921476  0.47602953  0.38946363  1
  C  C1  4  0.09282597  0.86366784  0.89190936  1
  C  C2  4  0.19704244  0.62345692  0.37265225  1
  C  C3  4  0.25245475  0.68201689  0.88053798  1
  C  C4  4  0.27742985  1.13563486  0.67660316  1
  C  C5  4  0.30119163  0.99874047  0.76010993  1
  C  C6  4  0.35445679  0.81601450  0.76685199  1
  C  C7  4  0.38432446  0.74520424  0.18861781  1
  S  S8  4  0.07631349  0.62041958  0.92056786  1
  S  S9  4  0.25895685  1.09633930  0.84962456  1
  S  S10  4  0.39335195  0.63502678  0.86643600  1
  N  N11  4  -0.06010147  1.15300728  0.88519544  1
  N  N12  4  0.19764279  0.96441456  0.40343538  1
  N  N13  4  0.25892741  1.24876243  0.61111858  1
  N  N14  4  0.40915032  0.79546003  0.12646394  1
