###############################################################################################
#
# CIF file generated by modified CIFWriter class 
# in pymatgen (v2025.03.10) https://pymatgen.org/
#
###############################################################################################
data_MACE-OFF23(L)_e7c91890eff64ee
_symmetry_space_group_name_H-M   P-4
_cell_length_a   12.76733492
_cell_length_b   12.76733492
_cell_length_c   6.48093555
_cell_angle_alpha   90.00000000
_cell_angle_beta   90.00000000
_cell_angle_gamma   90.00000000
_symmetry_Int_Tables_number   81
_chemical_formula_moiety   'C8 N4 S3'
_chemical_formula_sum   'C32 S12 N16'
_cell_volume   1056.42386819
_cell_formula_units_Z   4
loop_
 _symmetry_equiv_pos_site_id
 _symmetry_equiv_pos_as_xyz
  1  'x, y, z'
  2  'y, -x, -z'
  3  '-x, -y, z'
  4  '-y, x, -z'
loop_
 _atom_site_type_symbol
 _atom_site_label
 _atom_site_symmetry_multiplicity
 _atom_site_fract_x
 _atom_site_fract_y
 _atom_site_fract_z
 _atom_site_occupancy
  C  C0  4  0.04375411  0.33941950  0.25570831  1
  C  C1  4  0.08972989  0.31382535  0.45065534  1
  C  C2  4  0.11302122  0.13304910  0.34847843  1
  C  C3  4  0.12226472  0.21642459  0.49494066  1
  C  C4  4  0.23232188  0.39293527  0.70084352  1
  C  C5  4  0.26994874  0.28954454  0.73751230  1
  C  C6  4  0.30776789  0.57429728  0.71707697  1
  C  C7  4  0.31179673  0.46322230  0.72848430  1
  S  S8  4  0.10443823  0.41977996  0.62419955  1
  S  S9  4  0.18075867  0.81402902  0.27374593  1
  S  S10  4  0.39599641  0.57592001  0.21081884  1
  N  N11  4  0.00659924  0.36241500  0.10083285  1
  N  N12  4  0.06383639  0.89220926  0.76425116  1
  N  N13  4  0.28025056  0.63107855  0.21644729  1
  N  N14  4  0.30884716  0.66422651  0.71307312  1
