###############################################################################################
#
# CIF file generated by modified CIFWriter class 
# in pymatgen (v2025.03.10) https://pymatgen.org/
#
###############################################################################################
data_MACE-OFF23(L)_e7da77d00c70d26
_symmetry_space_group_name_H-M   C2
_cell_length_a   12.42892266
_cell_length_b   7.82191145
_cell_length_c   11.04020151
_cell_angle_alpha   90.00000000
_cell_angle_beta   94.28810620
_cell_angle_gamma   90.00000000
_symmetry_Int_Tables_number   5
_chemical_formula_moiety   'C8 N4 S3'
_chemical_formula_sum   'C32 S12 N16'
_cell_volume   1070.30103534
_cell_formula_units_Z   4
loop_
 _symmetry_equiv_pos_site_id
 _symmetry_equiv_pos_as_xyz
  1  'x, y, z'
  2  '-x, y, -z'
  3  'x+1/2, y+1/2, z'
  4  '-x+1/2, y+1/2, -z'
loop_
 _atom_site_type_symbol
 _atom_site_label
 _atom_site_symmetry_multiplicity
 _atom_site_fract_x
 _atom_site_fract_y
 _atom_site_fract_z
 _atom_site_occupancy
  C  C0  4  -0.07528691  0.15420087  0.35475276  1
  C  C1  4  0.03239034  0.20744997  0.33629605  1
  C  C2  4  0.09978597  -0.07703991  0.38036114  1
  C  C3  4  0.10304212  0.71806123  0.12158387  1
  C  C4  4  0.11468351  0.09585978  0.34238058  1
  C  C5  4  0.14514270  0.43521329  0.21679069  1
  C  C6  4  0.16102971  0.56163068  0.13389708  1
  C  C7  4  0.22795539  0.31073902  0.21172615  1
  S  S8  4  0.04344017  0.43049328  0.31700102  1
  S  S9  4  0.22756761  1.01523209  0.94277471  1
  S  S10  4  0.24881532  0.14168741  0.31526165  1
  N  N11  4  -0.16310988  0.12009006  0.37028759  1
  N  N12  4  0.05872685  0.84693762  0.11869946  1
  N  N13  4  0.09353512  -0.21310968  0.41785244  1
  N  N14  4  0.20243076  0.83533950  0.86931323  1
