###############################################################################################
#
# CIF file generated by modified CIFWriter class 
# in pymatgen (v2025.03.10) https://pymatgen.org/
#
###############################################################################################
data_MACE-OFF23(L)_e857a3185c5dba9
_symmetry_space_group_name_H-M   P2_1/c
_cell_length_a   15.35306752
_cell_length_b   6.92849321
_cell_length_c   11.35661720
_cell_angle_alpha   90.00000000
_cell_angle_beta   55.53013481
_cell_angle_gamma   90.00000000
_symmetry_Int_Tables_number   14
_chemical_formula_moiety   'C8 N4 S3'
_chemical_formula_sum   'C32 S12 N16'
_cell_volume   995.94087474
_cell_formula_units_Z   4
loop_
 _symmetry_equiv_pos_site_id
 _symmetry_equiv_pos_as_xyz
  1  'x, y, z'
  2  '-x, -y, -z'
  3  '-x, y+1/2, -z+1/2'
  4  'x, -y+1/2, z+1/2'
loop_
 _atom_site_type_symbol
 _atom_site_label
 _atom_site_symmetry_multiplicity
 _atom_site_fract_x
 _atom_site_fract_y
 _atom_site_fract_z
 _atom_site_occupancy
  C  C0  4  0.05064183  1.23833616  0.93330241  1
  C  C1  4  0.16036572  1.20545773  0.83097789  1
  C  C2  4  0.16797131  0.93141139  0.11104979  1
  C  C3  4  0.20338347  0.41723141  0.21627552  1
  C  C4  4  0.22087586  0.75175278  0.08984709  1
  C  C5  4  0.31518612  0.40305374  0.13504934  1
  C  C6  4  0.32701387  0.75936614  0.51257986  1
  C  C7  4  0.39084062  0.90989468  -0.05259839  1
  S  S8  4  0.13343915  0.94510177  0.66828771  1
  S  S9  4  0.25971166  0.17273078  0.32564605  1
  S  S10  4  0.40011980  0.97299382  0.47401179  1
  N  N11  4  -0.03850992  1.26311184  1.01243569  1
  N  N12  4  0.12131318  0.42914229  0.63060132  1
  N  N13  4  0.35451921  1.21732149  0.68164501  1
  N  N14  4  0.44262093  1.04327379  -0.10839239  1
