###############################################################################################
#
# CIF file generated by modified CIFWriter class 
# in pymatgen (v2025.03.10) https://pymatgen.org/
#
###############################################################################################
data_MACE-OFF23(L)_eba51e83df5f0f2
_symmetry_space_group_name_H-M   Pca2_1
_cell_length_a   9.53381954
_cell_length_b   9.37447536
_cell_length_c   11.19235382
_cell_angle_alpha   90.00000000
_cell_angle_beta   90.00000000
_cell_angle_gamma   90.00000000
_symmetry_Int_Tables_number   29
_chemical_formula_moiety   'C8 N4 S3'
_chemical_formula_sum   'C32 S12 N16'
_cell_volume   1000.31165706
_cell_formula_units_Z   4
loop_
 _symmetry_equiv_pos_site_id
 _symmetry_equiv_pos_as_xyz
  1  'x, y, z'
  2  '-x, -y, z+1/2'
  3  '-x+1/2, y, z+1/2'
  4  'x+1/2, -y, z'
loop_
 _atom_site_type_symbol
 _atom_site_label
 _atom_site_symmetry_multiplicity
 _atom_site_fract_x
 _atom_site_fract_y
 _atom_site_fract_z
 _atom_site_occupancy
  C  C0  4  -0.05967956  0.86020317  0.47969321  1
  C  C1  4  -0.05635366  0.81745524  0.67959712  1
  C  C2  4  -0.01203086  0.77390271  0.79529732  1
  C  C3  4  0.01782216  0.80089120  0.57567420  1
  C  C4  4  0.05816488  0.60252012  0.22945870  1
  C  C5  4  0.08218227  0.68650855  0.33439626  1
  C  C6  4  0.15934235  0.63555784  0.42537966  1
  C  C7  4  0.23059096  0.50191302  0.41441648  1
  S  S8  4  -0.21013317  0.90455008  0.64937042  1
  S  S9  4  0.00420387  0.85712554  0.33272899  1
  S  S10  4  0.18401141  0.72507975  0.56191487  1
  N  N11  4  -0.18046772  0.91733455  0.50556088  1
  N  N12  4  0.02867449  0.73931922  0.88737978  1
  N  N13  4  0.03979113  0.53746491  0.14393431  1
  N  N14  4  0.20734928  0.39808671  0.90266140  1
