###############################################################################################
#
# CIF file generated by modified CIFWriter class 
# in pymatgen (v2025.03.10) https://pymatgen.org/
#
###############################################################################################
data_MACE-OFF23(L)_ebe6a13656232ff
_symmetry_space_group_name_H-M   P2_1/c
_cell_length_a   13.41601637
_cell_length_b   9.75620454
_cell_length_c   7.37372456
_cell_angle_alpha   90.00000000
_cell_angle_beta   82.90425990
_cell_angle_gamma   90.00000000
_symmetry_Int_Tables_number   14
_chemical_formula_moiety   'C8 N4 S3'
_chemical_formula_sum   'C32 S12 N16'
_cell_volume   957.75047701
_cell_formula_units_Z   4
loop_
 _symmetry_equiv_pos_site_id
 _symmetry_equiv_pos_as_xyz
  1  'x, y, z'
  2  '-x, -y, -z'
  3  '-x, y+1/2, -z+1/2'
  4  'x, -y+1/2, z+1/2'
loop_
 _atom_site_type_symbol
 _atom_site_label
 _atom_site_symmetry_multiplicity
 _atom_site_fract_x
 _atom_site_fract_y
 _atom_site_fract_z
 _atom_site_occupancy
  C  C0  4  0.12099900  0.53367318  0.56085651  1
  C  C1  4  0.16579722  0.93002631  0.51061718  1
  C  C2  4  0.16711321  0.65646235  0.48347868  1
  C  C3  4  0.26640241  0.65627688  0.42441725  1
  C  C4  4  0.26967780  0.56928990  0.94354984  1
  C  C5  4  0.30933759  1.05727833  0.47491443  1
  C  C6  4  0.32282970  0.96769984  0.93732064  1
  C  C7  4  0.40988664  1.09895377  0.41897122  1
  S  S8  4  0.08278724  0.70578201  0.98397184  1
  S  S9  4  0.21757324  1.16030866  0.58264720  1
  S  S10  4  0.33920619  0.70395103  0.83505381  1
  N  N11  4  0.08417745  1.06210834  1.13029038  1
  N  N12  4  0.13015516  1.04282302  0.58942431  1
  N  N13  4  0.36628803  1.06794852  0.95055285  1
  N  N14  4  0.49153703  0.37357247  0.86733662  1
