###############################################################################################
#
# CIF file generated by modified CIFWriter class 
# in pymatgen (v2025.03.10) https://pymatgen.org/
#
###############################################################################################
data_MACE-OFF23(L)_edebfc8f0f2c2c3
_symmetry_space_group_name_H-M   P4_3
_cell_length_a   8.28239310
_cell_length_b   8.28239310
_cell_length_c   16.58696664
_cell_angle_alpha   90.00000000
_cell_angle_beta   90.00000000
_cell_angle_gamma   90.00000000
_symmetry_Int_Tables_number   78
_chemical_formula_moiety   'C8 N4 S3'
_chemical_formula_sum   'C32 S12 N16'
_cell_volume   1137.83332605
_cell_formula_units_Z   4
loop_
 _symmetry_equiv_pos_site_id
 _symmetry_equiv_pos_as_xyz
  1  'x, y, z'
  2  '-y, x, z+3/4'
  3  '-x, -y, z+1/2'
  4  'y, -x, z+1/4'
loop_
 _atom_site_type_symbol
 _atom_site_label
 _atom_site_symmetry_multiplicity
 _atom_site_fract_x
 _atom_site_fract_y
 _atom_site_fract_z
 _atom_site_occupancy
  C  C0  4  -0.09570778  0.18619539  0.54774084  1
  C  C1  4  -0.05707322  0.33570200  0.50878330  1
  C  C2  4  0.02730740  0.45164438  0.54686901  1
  C  C3  4  0.04607532  0.44885532  0.36932288  1
  C  C4  4  0.05083964  0.30437146  0.23950153  1
  C  C5  4  0.08658127  0.42630412  0.62695854  1
  C  C6  4  0.11283306  0.41845038  0.29551657  1
  C  C7  4  0.13481384  0.57161863  0.40902192  1
  S  S8  4  -0.12462860  0.35486737  0.40841061  1
  S  S9  4  0.07655999  0.64163406  0.50496920  1
  S  S10  4  0.27446583  0.54429148  0.28130019  1
  N  N11  4  -0.00704798  0.21267926  0.19639855  1
  N  N12  4  0.06646004  1.12967297  0.82817998  1
  N  N13  4  0.13702360  0.40920437  0.69085813  1
  N  N14  4  0.25850562  0.63063264  0.37005604  1
