###############################################################################################
#
# CIF file generated by modified CIFWriter class 
# in pymatgen (v2025.03.10) https://pymatgen.org/
#
###############################################################################################
data_MACE-OFF23(L)_ef5fc74475ca89f
_symmetry_space_group_name_H-M   Pna2_1
_cell_length_a   12.50449244
_cell_length_b   7.18982784
_cell_length_c   12.51792756
_cell_angle_alpha   90.00000000
_cell_angle_beta   90.00000000
_cell_angle_gamma   90.00000000
_symmetry_Int_Tables_number   33
_chemical_formula_moiety   'C8 N4 S3'
_chemical_formula_sum   'C32 S12 N16'
_cell_volume   1125.42612848
_cell_formula_units_Z   4
loop_
 _symmetry_equiv_pos_site_id
 _symmetry_equiv_pos_as_xyz
  1  'x, y, z'
  2  '-x, -y, z+1/2'
  3  '-x+1/2, y+1/2, z+1/2'
  4  'x+1/2, -y+1/2, z'
loop_
 _atom_site_type_symbol
 _atom_site_label
 _atom_site_symmetry_multiplicity
 _atom_site_fract_x
 _atom_site_fract_y
 _atom_site_fract_z
 _atom_site_occupancy
  C  C0  4  0.03794961  0.07381033  -0.14827896  1
  C  C1  4  0.07453096  0.47412095  0.70296994  1
  C  C2  4  0.08166815  0.16614605  -0.05759763  1
  C  C3  4  0.13346971  0.08430698  0.02662963  1
  C  C4  4  0.15414230  0.20251494  0.55791791  1
  C  C5  4  0.17262720  0.22354946  0.09687527  1
  C  C6  4  0.18198997  0.48093269  0.66392034  1
  C  C7  4  0.22021436  0.34989504  0.59744871  1
  S  S8  4  0.08232706  0.40316665  -0.04007176  1
  S  S9  4  0.14725109  -0.15352225  0.04917739  1
  S  S10  4  0.24389265  0.17095744  0.21373494  1
  N  N11  4  -0.00923236  0.47354580  0.74060549  1
  N  N12  4  0.00735032  -0.00249146  -0.22284130  1
  N  N13  4  0.10345659  0.08496433  0.52217632  1
  N  N14  4  0.15285710  0.39543878  0.07026101  1
