###############################################################################################
#
# CIF file generated by modified CIFWriter class 
# in pymatgen (v2025.03.10) https://pymatgen.org/
#
###############################################################################################
data_MACE-OFF23(L)_f0c7819e8fbe61a
_symmetry_space_group_name_H-M   P4_1
_cell_length_a   9.02002652
_cell_length_b   9.02002652
_cell_length_c   12.51914334
_cell_angle_alpha   90.00000000
_cell_angle_beta   90.00000000
_cell_angle_gamma   90.00000000
_symmetry_Int_Tables_number   76
_chemical_formula_moiety   'C8 N4 S3'
_chemical_formula_sum   'C32 S12 N16'
_cell_volume   1018.56850015
_cell_formula_units_Z   4
loop_
 _symmetry_equiv_pos_site_id
 _symmetry_equiv_pos_as_xyz
  1  'x, y, z'
  2  '-y, x, z+1/4'
  3  '-x, -y, z+1/2'
  4  'y, -x, z+3/4'
loop_
 _atom_site_type_symbol
 _atom_site_label
 _atom_site_symmetry_multiplicity
 _atom_site_fract_x
 _atom_site_fract_y
 _atom_site_fract_z
 _atom_site_occupancy
  C  C0  4  -0.04168070  0.63234571  0.29680913  1
  C  C1  4  -0.01627920  0.79319765  0.15806776  1
  C  C2  4  -0.00324160  0.52964907  0.37847537  1
  C  C3  4  0.05498022  0.68329631  0.22047442  1
  C  C4  4  0.20412049  0.24712774  0.15636743  1
  C  C5  4  0.20596627  0.76977258  0.01548191  1
  C  C6  4  0.26688657  0.65931179  0.07256424  1
  C  C7  4  0.36292172  0.55416467  0.02196141  1
  S  S8  4  -0.20793835  0.72238469  0.28501053  1
  S  S9  4  0.07555857  0.89929220  0.06105174  1
  S  S10  4  0.24069533  0.63434590  0.21094669  1
  N  N11  4  -0.15376397  0.82247074  0.18272928  1
  N  N12  4  0.03579739  0.44792404  0.44303719  1
  N  N13  4  0.17139236  0.28056767  0.07112662  1
  N  N14  4  0.44002806  0.47051378  -0.01910013  1
