###############################################################################################
#
# CIF file generated by modified CIFWriter class 
# in pymatgen (v2025.03.10) https://pymatgen.org/
#
###############################################################################################
data_MACE-OFF23(L)_f4dc2a839c6b700
_symmetry_space_group_name_H-M   P2/c
_cell_length_a   11.96094413
_cell_length_b   6.93993267
_cell_length_c   13.17516471
_cell_angle_alpha   90.00000000
_cell_angle_beta   82.04388202
_cell_angle_gamma   90.00000000
_symmetry_Int_Tables_number   13
_chemical_formula_moiety   'C8 N4 S3'
_chemical_formula_sum   'C32 S12 N16'
_cell_volume   1083.11897535
_cell_formula_units_Z   4
loop_
 _symmetry_equiv_pos_site_id
 _symmetry_equiv_pos_as_xyz
  1  'x, y, z'
  2  '-x, -y, -z'
  3  '-x, y, -z+1/2'
  4  'x, -y, z+1/2'
loop_
 _atom_site_type_symbol
 _atom_site_label
 _atom_site_symmetry_multiplicity
 _atom_site_fract_x
 _atom_site_fract_y
 _atom_site_fract_z
 _atom_site_occupancy
  C  C0  4  0.10932191  1.04362151  0.40244115  1
  C  C1  4  0.15157544  1.12823637  0.60481167  1
  C  C2  4  0.16789519  0.08945597  0.95915158  1
  C  C3  4  0.19197656  0.04468864  1.05295142  1
  C  C4  4  0.35199021  0.70680019  0.41915283  1
  C  C5  4  0.38063366  0.24032660  1.01649206  1
  C  C6  4  0.43892841  0.80638582  -0.09063872  1
  C  C7  4  0.49612345  0.76139116  0.51121333  1
  S  S8  4  0.21205074  0.30336010  0.89289036  1
  S  S9  4  0.27868292  0.81205169  0.62120908  1
  S  S10  4  0.44330287  0.69956639  0.11017277  1
  N  N11  4  0.06556792  -0.15062764  0.85425936  1
  N  N12  4  0.11996452  -0.26343874  1.15032432  1
  N  N13  4  0.38418229  0.15448427  0.34726466  1
  N  N14  4  0.43554841  0.32957867  0.84717509  1
