###############################################################################################
#
# CIF file generated by modified CIFWriter class 
# in pymatgen (v2025.03.10) https://pymatgen.org/
#
###############################################################################################
data_MACE-OFF23(L)_f6095a83550ae2e
_symmetry_space_group_name_H-M   P2_12_12
_cell_length_a   7.95517750
_cell_length_b   13.61979999
_cell_length_c   9.60313165
_cell_angle_alpha   90.00000000
_cell_angle_beta   90.00000000
_cell_angle_gamma   90.00000000
_symmetry_Int_Tables_number   18
_chemical_formula_moiety   'C8 N4 S3'
_chemical_formula_sum   'C32 S12 N16'
_cell_volume   1040.47940092
_cell_formula_units_Z   4
loop_
 _symmetry_equiv_pos_site_id
 _symmetry_equiv_pos_as_xyz
  1  'x, y, z'
  2  '-x, -y, z'
  3  'x+1/2, -y+1/2, -z'
  4  '-x+1/2, y+1/2, -z'
loop_
 _atom_site_type_symbol
 _atom_site_label
 _atom_site_symmetry_multiplicity
 _atom_site_fract_x
 _atom_site_fract_y
 _atom_site_fract_z
 _atom_site_occupancy
  C  C0  4  0.06069222  0.19893146  0.43083063  1
  C  C1  4  0.08826565  0.30194151  0.43546297  1
  C  C2  4  0.11870930  0.33037877  0.56982353  1
  C  C3  4  0.15865142  0.42749076  0.61237904  1
  C  C4  4  0.16077984  0.20397659  0.16694128  1
  C  C5  4  0.18077762  0.30202462  0.17224005  1
  C  C6  4  0.20157844  0.85208789  0.91546687  1
  C  C7  4  0.23797764  0.64618700  0.92594964  1
  S  S8  4  0.01868591  0.13816288  0.27288034  1
  S  S9  4  0.07365830  0.37844308  0.29070175  1
  S  S10  4  0.10614398  0.23011453  0.67694692  1
  N  N11  4  0.06533333  0.15282997  0.55002571  1
  N  N12  4  0.10591318  0.89412487  0.98223407  1
  N  N13  4  0.15318546  0.60139133  0.99901955  1
  N  N14  4  0.19181909  0.50667585  0.64221716  1
