###############################################################################################
#
# CIF file generated by modified CIFWriter class 
# in pymatgen (v2025.03.10) https://pymatgen.org/
#
###############################################################################################
data_MACE-OFF23(L)_f73754dff4caa5d
_symmetry_space_group_name_H-M   P-4
_cell_length_a   12.15988132
_cell_length_b   12.15988132
_cell_length_c   6.82667775
_cell_angle_alpha   90.00000000
_cell_angle_beta   90.00000000
_cell_angle_gamma   90.00000000
_symmetry_Int_Tables_number   81
_chemical_formula_moiety   'C8 N4 S3'
_chemical_formula_sum   'C32 S12 N16'
_cell_volume   1009.41109822
_cell_formula_units_Z   4
loop_
 _symmetry_equiv_pos_site_id
 _symmetry_equiv_pos_as_xyz
  1  'x, y, z'
  2  'y, -x, -z'
  3  '-x, -y, z'
  4  '-y, x, -z'
loop_
 _atom_site_type_symbol
 _atom_site_label
 _atom_site_symmetry_multiplicity
 _atom_site_fract_x
 _atom_site_fract_y
 _atom_site_fract_z
 _atom_site_occupancy
  C  C0  4  0.11016025  0.65569287  0.43350154  1
  C  C1  4  0.12586216  0.14684859  0.52073600  1
  C  C2  4  0.14620085  0.71821126  0.26769299  1
  C  C3  4  0.16558667  0.82651663  0.29005937  1
  C  C4  4  0.16699316  0.27722991  1.04877922  1
  C  C5  4  0.25766983  0.71817768  -0.06933462  1
  C  C6  4  0.32301011  0.32665459  1.21068361  1
  C  C7  4  0.33977118  0.56506828  -0.26749558  1
  S  S8  4  0.07916443  0.20394654  0.89144984  1
  S  S9  4  0.15521629  0.64320188  0.04864553  1
  S  S10  4  0.21801967  0.40150199  1.31163014  1
  N  N11  4  0.08249237  0.60629698  0.56813016  1
  N  N12  4  0.08984762  0.12849486  0.36892791  1
  N  N13  4  0.12396552  0.35132958  1.16370530  1
  N  N14  4  0.35384681  0.47494462  -0.31129218  1
