###############################################################################################
#
# CIF file generated by modified CIFWriter class 
# in pymatgen (v2025.03.10) https://pymatgen.org/
#
###############################################################################################
data_MACE-OFF23(L)_ff9187c49a87728
_symmetry_space_group_name_H-M   P4_2
_cell_length_a   13.88251782
_cell_length_b   13.88251782
_cell_length_c   5.51038394
_cell_angle_alpha   90.00000000
_cell_angle_beta   90.00000000
_cell_angle_gamma   90.00000000
_symmetry_Int_Tables_number   77
_chemical_formula_moiety   'C8 N4 S3'
_chemical_formula_sum   'C32 S12 N16'
_cell_volume   1061.98489321
_cell_formula_units_Z   4
loop_
 _symmetry_equiv_pos_site_id
 _symmetry_equiv_pos_as_xyz
  1  'x, y, z'
  2  '-y, x, z+1/2'
  3  '-x, -y, z'
  4  'y, -x, z+1/2'
loop_
 _atom_site_type_symbol
 _atom_site_label
 _atom_site_symmetry_multiplicity
 _atom_site_fract_x
 _atom_site_fract_y
 _atom_site_fract_z
 _atom_site_occupancy
  C  C0  4  0.10312822  0.79084310  0.57617911  1
  C  C1  4  0.10894425  0.11249945  1.12493209  1
  C  C2  4  0.11728717  0.64327420  0.39702015  1
  C  C3  4  0.14716634  0.74105421  0.39208880  1
  C  C4  4  0.27895777  0.59601512  0.16940683  1
  C  C5  4  0.28282914  0.40602164  0.67228316  1
  C  C6  4  0.30720370  0.68839954  0.16918976  1
  C  C7  4  0.34595003  0.51742692  0.16860521  1
  S  S8  4  0.03059749  0.71328508  0.73463861  1
  S  S9  4  0.15675054  0.56036889  0.17687884  1
  S  S10  4  0.21376666  0.22542945  0.67290224  1
  N  N11  4  0.02782341  0.12199445  1.15844193  1
  N  N12  4  0.05619816  0.61947503  0.56672756  1
  N  N13  4  0.25322164  0.48313166  0.67606807  1
  N  N14  4  0.39382309  0.45012342  0.16675688  1
