###############################################################################################
#
# CIF file generated by modified CIFWriter class 
# in pymatgen (v2025.03.10) https://pymatgen.org/
#
###############################################################################################
data_MACE-OFF23(L)_ff992a279010333
_symmetry_space_group_name_H-M   P2_1/c
_cell_length_a   9.52070621
_cell_length_b   6.76497164
_cell_length_c   14.63802329
_cell_angle_alpha   90.00000000
_cell_angle_beta   97.00014039
_cell_angle_gamma   90.00000000
_symmetry_Int_Tables_number   14
_chemical_formula_moiety   'C8 N4 S3'
_chemical_formula_sum   'C32 S12 N16'
_cell_volume   935.76792925
_cell_formula_units_Z   4
loop_
 _symmetry_equiv_pos_site_id
 _symmetry_equiv_pos_as_xyz
  1  'x, y, z'
  2  '-x, -y, -z'
  3  '-x, y+1/2, -z+1/2'
  4  'x, -y+1/2, z+1/2'
loop_
 _atom_site_type_symbol
 _atom_site_label
 _atom_site_symmetry_multiplicity
 _atom_site_fract_x
 _atom_site_fract_y
 _atom_site_fract_z
 _atom_site_occupancy
  C  C0  4  0.00764072  1.03053413  0.61341255  1
  C  C1  4  0.08910956  0.62972354  0.15411574  1
  C  C2  4  0.19501399  0.61863782  0.22623457  1
  C  C3  4  0.24660552  0.68781979  0.74800037  1
  C  C4  4  0.28454286  1.14263572  0.96275014  1
  C  C5  4  0.30612756  1.00496568  0.89132546  1
  C  C6  4  0.35525804  0.67759233  0.41262529  1
  C  C7  4  0.38373242  0.73501925  0.50713054  1
  S  S8  4  0.06704257  0.87057910  0.11868653  1
  S  S9  4  0.26315182  0.40221633  0.27897584  1
  S  S10  4  0.38760184  0.63716163  0.83382095  1
  N  N11  4  -0.05970692  0.33980220  0.08224185  1
  N  N12  4  0.18753303  0.54360057  0.69842727  1
  N  N13  4  0.26702661  0.24480754  0.51905848  1
  N  N14  4  0.40838451  0.72048284  1.08303795  1
